gem5 Simulator System.  http://gem5.org
gem5 is copyrighted software; use the --copyright option for details.

gem5 compiled Apr 18 2022 14:27:16
gem5 started Apr 18 2022 14:31:06
gem5 executing on ubuntu, pid 16618
command line: ../build/X86_MESI_Two_Level/gem5.opt --debug-start=0 se_run_experiment.py --mem-type SimpleMemory --cmd bin/control_mem_dtlb_store --cpu-type DerivO3CPU --cpu-clock 2GHz --sys-clock 2GHz --l1d_size 32kB --l1d_assoc 8 --l1i_size 32kB --l1d_assoc 8 --l2_size 2MB --l2_assoc 16 --l2cache --caches --mode 2 --stt False

Launching /home/jiabinlin/Desktop/ECEN5593/dolma/idolma/attacks/se_run_experiment.py:run_experiment:87
**** REAL SIMULATION **** (max ticks: 18446744073709551615)
Global frequency set at 1000000000000 ticks per second
Using following config...
	DOLMA-Conservative (M+R)
========== Exiting @ tick 3401799000 because workbegin
0x2a
3401.801.500: system.cpu.itb: Translating vaddr 0x49bfc0 at pc 0x401cb2 (mode == Read).
3401.801.500: system.cpu.itb: In protected mode.
3401.801.500: system.cpu.itb: Paging enabled.
3401.801.500: system.cpu.itb: Entry found with paddr 0x9a000, doing protection checks.
3401.801.500: system.cpu.itb: Translated 0x49bfc0 -> 0x9afc0.
3401.802.500: system.cpu.itb: Translating vaddr 0x49c000 at pc 0x401cb2 (mode == Read).
3401.802.500: system.cpu.itb: In protected mode.
3401.802.500: system.cpu.itb: Paging enabled.
3401.802.500: system.cpu.itb: Entry found with paddr 0x9b000, doing protection checks.
3401.802.500: system.cpu.itb: Translated 0x49c000 -> 0x9b000.
3401.815.000: system.cpu.itb: Translating vaddr 0x49c040 at pc 0x401ed7 (mode == Read).
3401.815.000: system.cpu.itb: In protected mode.
3401.815.000: system.cpu.itb: Paging enabled.
3401.815.000: system.cpu.itb: Entry found with paddr 0x9b000, doing protection checks.
3401.815.000: system.cpu.itb: Translated 0x49c040 -> 0x9b040.
3401.816.500: system.cpu.itb: Translating vaddr 0x401ec0 at pc 0x401ed7 (mode == Read).
3401.816.500: system.cpu.itb: In protected mode.
3401.816.500: system.cpu.itb: Paging enabled.
3401.816.500: system.cpu.itb: Entry found with paddr 0, doing protection checks.
3401.816.500: system.cpu.itb: Translated 0x401ec0 -> 0xec0.
3401.818.000: system.cpu.itb: Translating vaddr 0x401f00 at pc 0x401ed7 (mode == Read).
3401.818.000: system.cpu.itb: In protected mode.
3401.818.000: system.cpu.itb: Paging enabled.
3401.818.000: system.cpu.itb: Entry found with paddr 0, doing protection checks.
3401.818.000: system.cpu.itb: Translated 0x401f00 -> 0xf00.
3401.820.000: system.cpu.dtb: Translating vaddr 0x7fffffffe478 at pc 0x401ed7 (mode == Read).
3401.820.000: system.cpu.dtb: In protected mode.
3401.820.000: system.cpu.dtb: Paging enabled.
3401.820.000: system.cpu.dtb: Entry found with paddr 0x2e2000, doing protection checks.
3401.820.000: system.cpu.dtb: Translated 0x7fffffffe478 -> 0x2e2478.
3401.820.500: system.cpu.itb: Translating vaddr 0x401f40 at pc 0x401ed7 (mode == Read).
3401.820.500: system.cpu.itb: In protected mode.
3401.820.500: system.cpu.itb: Paging enabled.
3401.820.500: system.cpu.itb: Entry found with paddr 0, doing protection checks.
3401.820.500: system.cpu.itb: Translated 0x401f40 -> 0xf40.
3401.822.000: system.cpu.itb: Translating vaddr 0x401f80 at pc 0x401ed7 (mode == Read).
3401.822.000: system.cpu.itb: In protected mode.
3401.822.000: system.cpu.itb: Paging enabled.
3401.822.000: system.cpu.itb: Entry found with paddr 0, doing protection checks.
3401.822.000: system.cpu.itb: Translated 0x401f80 -> 0xf80.
3401.823.000: system.cpu.dtb: Translating vaddr 0x7fffffffe488 at pc 0x401ee0 (mode == Write).
3401.823.000: system.cpu.dtb: In protected mode.
3401.823.000: system.cpu.dtb: Paging enabled.
3401.823.000: system.cpu.dtb: Entry found with paddr 0x2e2000, doing protection checks.
3401.823.000: system.cpu.dtb: Translated 0x7fffffffe488 -> 0x2e2488.
3401.823.500: system.cpu.dtb: Translating vaddr 0x7fffffffe4a8 at pc 0x401ee9 (mode == Write).
3401.823.500: system.cpu.dtb: In protected mode.
3401.823.500: system.cpu.dtb: Paging enabled.
3401.823.500: system.cpu.dtb: Entry found with paddr 0x2e2000, doing protection checks.
3401.823.500: system.cpu.dtb: Translated 0x7fffffffe4a8 -> 0x2e24a8.
3401.830.000: system.cpu.itb: Translating vaddr 0x401fc0 at pc 0x401f01 (mode == Read).
3401.830.000: system.cpu.itb: In protected mode.
3401.830.000: system.cpu.itb: Paging enabled.
3401.830.000: system.cpu.itb: Entry found with paddr 0, doing protection checks.
3401.830.000: system.cpu.itb: Translated 0x401fc0 -> 0xfc0.
3401.830.500: system.cpu.dtb: Translating vaddr 0x7fffffffe4a8 at pc 0x401f01 (mode == Read).
3401.830.500: system.cpu.dtb: In protected mode.
3401.830.500: system.cpu.dtb: Paging enabled.
3401.830.500: system.cpu.dtb: Entry found with paddr 0x2e2000, doing protection checks.
3401.830.500: system.cpu.dtb: Translated 0x7fffffffe4a8 -> 0x2e24a8.
3401.830.500: system.cpu.dtb: Translating vaddr 0x7fffffffe488 at pc 0x401f01 (mode == Read).
3401.830.500: system.cpu.dtb: In protected mode.
3401.830.500: system.cpu.dtb: Paging enabled.
3401.830.500: system.cpu.dtb: Entry found with paddr 0x2e2000, doing protection checks.
3401.830.500: system.cpu.dtb: Translated 0x7fffffffe488 -> 0x2e2488.
3401.832.000: system.cpu.dtb: Translating vaddr 0x7fffffffe46c at pc 0x401f06 (mode == Write).
3401.832.000: system.cpu.dtb: In protected mode.
3401.832.000: system.cpu.dtb: Paging enabled.
3401.832.000: system.cpu.dtb: Entry found with paddr 0x2e2000, doing protection checks.
3401.832.000: system.cpu.dtb: Translated 0x7fffffffe46c -> 0x2e246c.
3401.832.500: system.cpu.dtb: Translating vaddr 0x4e2880 at pc 0x401f06 (mode == Read).
3401.832.500: system.cpu.dtb: In protected mode.
3401.832.500: system.cpu.dtb: Paging enabled.
3401.832.500: system.cpu.dtb: Entry found with paddr 0xb8000, doing protection checks.
3401.832.500: system.cpu.dtb: Translated 0x4e2880 -> 0xb8880.
3401.833.000: system.cpu.dtb: In protected mode.
3401.835.500: system.cpu.dtb: Translating vaddr 0x7fffffffe46c at pc 0x401f23 (mode == Write).
3401.835.500: system.cpu.dtb: In protected mode.
3401.835.500: system.cpu.dtb: Paging enabled.
3401.835.500: system.cpu.dtb: Entry found with paddr 0x2e2000, doing protection checks.
3401.835.500: system.cpu.dtb: Translated 0x7fffffffe46c -> 0x2e246c.
3401.836.000: system.cpu.dtb: Translating vaddr 0x7fffffffe4a0 at pc 0x401f23 (mode == Write).
3401.836.000: system.cpu.dtb: In protected mode.
3401.836.000: system.cpu.dtb: Paging enabled.
3401.836.000: system.cpu.dtb: Entry found with paddr 0x2e2000, doing protection checks.
3401.836.000: system.cpu.dtb: Translated 0x7fffffffe4a0 -> 0x2e24a0.
3401.842.000: system.cpu.itb: Translating vaddr 0x402000 at pc 0x401f3a (mode == Read).
3401.842.000: system.cpu.itb: In protected mode.
3401.842.000: system.cpu.itb: Paging enabled.
3401.842.000: system.cpu.itb: Entry found with paddr 0x1000, doing protection checks.
3401.842.000: system.cpu.itb: Translated 0x402000 -> 0x1000.
3401.843.000: system.cpu.dtb: Translating vaddr 0x7fffffffe4a0 at pc 0x401f3a (mode == Read).
3401.843.000: system.cpu.dtb: In protected mode.
3401.843.000: system.cpu.dtb: Paging enabled.
3401.843.000: system.cpu.dtb: Entry found with paddr 0x2e2000, doing protection checks.
3401.843.000: system.cpu.dtb: Translated 0x7fffffffe4a0 -> 0x2e24a0.
3401.843.000: system.cpu.dtb: Translating vaddr 0x7fffffffe478 at pc 0x401f3a (mode == Read).
3401.843.000: system.cpu.dtb: In protected mode.
3401.843.000: system.cpu.dtb: Paging enabled.
3401.843.000: system.cpu.dtb: Entry found with paddr 0x2e2000, doing protection checks.
3401.843.000: system.cpu.dtb: Translated 0x7fffffffe478 -> 0x2e2478.
3401.843.500: system.cpu.dtb: Translating vaddr 0x7fffffffe478 at pc 0x401f3a (mode == Read).
3401.843.500: system.cpu.dtb: In protected mode.
3401.843.500: system.cpu.dtb: Paging enabled.
3401.843.500: system.cpu.dtb: Entry found with paddr 0x2e2000, doing protection checks.
3401.843.500: system.cpu.dtb: Translated 0x7fffffffe478 -> 0x2e2478.
3401.844.000: system.cpu.dtb: Translating vaddr 0x7fffffffe478 at pc 0x401f3f (mode == Read).
3401.844.000: system.cpu.dtb: In protected mode.
3401.844.000: system.cpu.dtb: Paging enabled.
3401.844.000: system.cpu.dtb: Entry found with paddr 0x2e2000, doing protection checks.
3401.844.000: system.cpu.dtb: Translated 0x7fffffffe478 -> 0x2e2478.
3401.844.500: system.cpu.dtb: Translating vaddr 0x7fffffffe46c at pc 0x401f3f (mode == Write).
3401.844.500: system.cpu.dtb: In protected mode.
3401.844.500: system.cpu.dtb: Paging enabled.
3401.844.500: system.cpu.dtb: Entry found with paddr 0x2e2000, doing protection checks.
3401.844.500: system.cpu.dtb: Translated 0x7fffffffe46c -> 0x2e246c.
3401.844.500: system.cpu.dtb: Translating vaddr 0x7fffffffe438 at pc 0x401f3f (mode == Write).
3401.844.500: system.cpu.dtb: In protected mode.
3401.844.500: system.cpu.dtb: Paging enabled.
3401.844.500: system.cpu.dtb: Entry found with paddr 0x2e2000, doing protection checks.
3401.844.500: system.cpu.dtb: Translated 0x7fffffffe438 -> 0x2e2438.
3401.844.500: system.cpu.dtb: Translating vaddr 0x7fffffffe478 at pc 0x401f3f (mode == Read).
3401.844.500: system.cpu.dtb: In protected mode.
3401.844.500: system.cpu.dtb: Paging enabled.
3401.844.500: system.cpu.dtb: Entry found with paddr 0x2e2000, doing protection checks.
3401.844.500: system.cpu.dtb: Translated 0x7fffffffe478 -> 0x2e2478.
3401.845.000: system.cpu.dtb: Translating vaddr 0x7fffffffe46c at pc 0x401f3f (mode == Read).
3401.845.000: system.cpu.dtb: In protected mode.
3401.845.000: system.cpu.dtb: Paging enabled.
3401.845.000: system.cpu.dtb: Entry found with paddr 0x2e2000, doing protection checks.
3401.845.000: system.cpu.dtb: Translated 0x7fffffffe46c -> 0x2e246c.
3401.845.000: system.cpu.dtb: Translating vaddr 0x7fffffffe47c at pc 0x401f3f (mode == Read).
3401.845.000: system.cpu.dtb: In protected mode.
3401.845.000: system.cpu.dtb: Paging enabled.
3401.845.000: system.cpu.dtb: Entry found with paddr 0x2e2000, doing protection checks.
3401.845.000: system.cpu.dtb: Translated 0x7fffffffe47c -> 0x2e247c.
3401.845.000: system.cpu.dtb: Translating vaddr 0x7fffffffe450 at pc 0x401f3f (mode == Read).
3401.845.000: system.cpu.dtb: In protected mode.
3401.845.000: system.cpu.dtb: Paging enabled.
3401.845.000: system.cpu.dtb: Entry found with paddr 0x2e2000, doing protection checks.
3401.845.000: system.cpu.dtb: Translated 0x7fffffffe450 -> 0x2e2450.
3401.845.500: system.cpu.dtb: Translating vaddr 0x7fffffffe4b0 at pc 0x401f3f (mode == Read).
3401.845.500: system.cpu.dtb: In protected mode.
3401.845.500: system.cpu.dtb: Paging enabled.
3401.845.500: system.cpu.dtb: Entry found with paddr 0x2e2000, doing protection checks.
3401.845.500: system.cpu.dtb: Translated 0x7fffffffe4b0 -> 0x2e24b0.
3401.846.000: system.cpu.itb: Translating vaddr 0x401c80 at pc 0x401f3f (mode == Read).
3401.846.000: system.cpu.itb: In protected mode.
3401.846.000: system.cpu.itb: Paging enabled.
3401.846.000: system.cpu.itb: Entry found with paddr 0, doing protection checks.
3401.846.000: system.cpu.itb: Translated 0x401c80 -> 0xc80.
3401.847.000: system.cpu.itb: Translating vaddr 0x401100 at pc 0x401f3f (mode == Read).
3401.847.000: system.cpu.itb: In protected mode.
3401.847.000: system.cpu.itb: Paging enabled.
3401.847.000: system.cpu.itb: Entry found with paddr 0, doing protection checks.
3401.847.000: system.cpu.itb: Translated 0x401100 -> 0x100.
3401.847.500: system.cpu.dtb: Translating vaddr 0x7fffffffe4b0 at pc 0x401f5d (mode == Write).
3401.847.500: system.cpu.dtb: In protected mode.
3401.847.500: system.cpu.dtb: Paging enabled.
3401.847.500: system.cpu.dtb: Entry found with paddr 0x2e2000, doing protection checks.
3401.847.500: system.cpu.dtb: Translated 0x7fffffffe4b0 -> 0x2e24b0.
3401.848.500: system.cpu.dtb: In protected mode.
3401.849.000: system.cpu.itb: Translating vaddr 0x401140 at pc 0x401cae (mode == Read).
3401.849.000: system.cpu.itb: In protected mode.
3401.849.000: system.cpu.itb: Paging enabled.
3401.849.000: system.cpu.itb: Entry found with paddr 0, doing protection checks.
3401.849.000: system.cpu.itb: Translated 0x401140 -> 0x140.
3401.850.500: system.cpu.dtb: Translating vaddr 0x7fffffffe438 at pc 0x401cae (mode == Read).
3401.850.500: system.cpu.dtb: In protected mode.
3401.850.500: system.cpu.dtb: Paging enabled.
3401.850.500: system.cpu.dtb: Entry found with paddr 0x2e2000, doing protection checks.
3401.850.500: system.cpu.dtb: Translated 0x7fffffffe438 -> 0x2e2438.
3401.851.500: system.cpu.dtb: Translating vaddr 0x7fffffffe438 at pc 0x401cae (mode == Write).
3401.851.500: system.cpu.dtb: In protected mode.
3401.851.500: system.cpu.dtb: Paging enabled.
3401.851.500: system.cpu.dtb: Entry found with paddr 0x2e2000, doing protection checks.
3401.851.500: system.cpu.dtb: Translated 0x7fffffffe438 -> 0x2e2438.
3401.851.500: system.cpu.dtb: Translating vaddr 0x6e3890 at pc 0x401cae (mode == Read).
3401.851.500: system.cpu.dtb: In protected mode.
3401.851.500: system.cpu.dtb: Paging enabled.
3401.851.500: system.cpu.dtb: Entry found with paddr 0x2e4000, doing protection checks.
3401.851.500: system.cpu.dtb: Translated 0x6e3890 -> 0x2e4890.
3401.851.500: system.cpu.dtb: Translating vaddr 0x6e38a8 at pc 0x401cae (mode == Read).
3401.851.500: system.cpu.dtb: In protected mode.
3401.851.500: system.cpu.dtb: Paging enabled.
3401.851.500: system.cpu.dtb: Entry found with paddr 0x2e4000, doing protection checks.
3401.851.500: system.cpu.dtb: Translated 0x6e38a8 -> 0x2e48a8.
3401.852.000: system.cpu.dtb: Translating vaddr 0x6e3898 at pc 0x401cae (mode == Read).
3401.852.000: system.cpu.dtb: In protected mode.
3401.852.000: system.cpu.dtb: Paging enabled.
3401.852.000: system.cpu.dtb: Entry found with paddr 0x2e4000, doing protection checks.
3401.852.000: system.cpu.dtb: Translated 0x6e3898 -> 0x2e4898.
3401.853.000: system.cpu.itb: Translating vaddr 0x401f80 at pc 0x401cae (mode == Read).
3401.853.000: system.cpu.itb: In protected mode.
3401.853.000: system.cpu.itb: Paging enabled.
3401.853.000: system.cpu.itb: Entry found with paddr 0, doing protection checks.
3401.853.000: system.cpu.itb: Translated 0x401f80 -> 0xf80.
========== Exiting @ tick 3401853000 because workbegin
0x2b
========== Exiting @ tick 3405571000 because workbegin
0x2a
3405.572.500: system.cpu.itb: Translating vaddr 0x401ec0 at pc 0x401cae (mode == Read).
3405.572.500: system.cpu.itb: In protected mode.
3405.572.500: system.cpu.itb: Paging enabled.
3405.572.500: system.cpu.itb: Entry found with paddr 0, doing protection checks.
3405.572.500: system.cpu.itb: Translated 0x401ec0 -> 0xec0.
3405.574.000: system.cpu.itb: Translating vaddr 0x401f00 at pc 0x401ed7 (mode == Read).
3405.574.000: system.cpu.itb: In protected mode.
3405.574.000: system.cpu.itb: Paging enabled.
3405.574.000: system.cpu.itb: Entry found with paddr 0, doing protection checks.
3405.574.000: system.cpu.itb: Translated 0x401f00 -> 0xf00.
3405.576.500: system.cpu.itb: Translating vaddr 0x401f40 at pc 0x401ed7 (mode == Read).
3405.576.500: system.cpu.itb: In protected mode.
3405.576.500: system.cpu.itb: Paging enabled.
3405.576.500: system.cpu.itb: Entry found with paddr 0, doing protection checks.
3405.576.500: system.cpu.itb: Translated 0x401f40 -> 0xf40.
3405.576.500: system.cpu.dtb: Translating vaddr 0x7fffffffe478 at pc 0x401ed7 (mode == Read).
3405.576.500: system.cpu.dtb: In protected mode.
3405.576.500: system.cpu.dtb: Paging enabled.
3405.576.500: system.cpu.dtb: Entry found with paddr 0x2e2000, doing protection checks.
3405.576.500: system.cpu.dtb: Translated 0x7fffffffe478 -> 0x2e2478.
3405.578.000: system.cpu.itb: Translating vaddr 0x401f80 at pc 0x401ed7 (mode == Read).
3405.578.000: system.cpu.itb: In protected mode.
3405.578.000: system.cpu.itb: Paging enabled.
3405.578.000: system.cpu.itb: Entry found with paddr 0, doing protection checks.
3405.578.000: system.cpu.itb: Translated 0x401f80 -> 0xf80.
3405.579.500: system.cpu.dtb: Translating vaddr 0x7fffffffe488 at pc 0x401ee0 (mode == Write).
3405.579.500: system.cpu.dtb: In protected mode.
3405.579.500: system.cpu.dtb: Paging enabled.
3405.579.500: system.cpu.dtb: Entry found with paddr 0x2e2000, doing protection checks.
3405.579.500: system.cpu.dtb: Translated 0x7fffffffe488 -> 0x2e2488.
3405.580.000: system.cpu.dtb: Translating vaddr 0x7fffffffe4a8 at pc 0x401ee9 (mode == Write).
3405.580.000: system.cpu.dtb: In protected mode.
3405.580.000: system.cpu.dtb: Paging enabled.
3405.580.000: system.cpu.dtb: Entry found with paddr 0x2e2000, doing protection checks.
3405.580.000: system.cpu.dtb: Translated 0x7fffffffe4a8 -> 0x2e24a8.
3405.586.500: system.cpu.itb: Translating vaddr 0x401fc0 at pc 0x401f01 (mode == Read).
3405.586.500: system.cpu.itb: In protected mode.
3405.586.500: system.cpu.itb: Paging enabled.
3405.586.500: system.cpu.itb: Entry found with paddr 0, doing protection checks.
3405.586.500: system.cpu.itb: Translated 0x401fc0 -> 0xfc0.
3405.587.000: system.cpu.dtb: Translating vaddr 0x7fffffffe4a8 at pc 0x401f01 (mode == Read).
3405.587.000: system.cpu.dtb: In protected mode.
3405.587.000: system.cpu.dtb: Paging enabled.
3405.587.000: system.cpu.dtb: Entry found with paddr 0x2e2000, doing protection checks.
3405.587.000: system.cpu.dtb: Translated 0x7fffffffe4a8 -> 0x2e24a8.
3405.587.000: system.cpu.dtb: Translating vaddr 0x7fffffffe488 at pc 0x401f01 (mode == Read).
3405.587.000: system.cpu.dtb: In protected mode.
3405.587.000: system.cpu.dtb: Paging enabled.
3405.587.000: system.cpu.dtb: Entry found with paddr 0x2e2000, doing protection checks.
3405.587.000: system.cpu.dtb: Translated 0x7fffffffe488 -> 0x2e2488.
3405.588.500: system.cpu.dtb: Translating vaddr 0x7fffffffe46c at pc 0x401f06 (mode == Write).
3405.588.500: system.cpu.dtb: In protected mode.
3405.588.500: system.cpu.dtb: Paging enabled.
3405.588.500: system.cpu.dtb: Entry found with paddr 0x2e2000, doing protection checks.
3405.588.500: system.cpu.dtb: Translated 0x7fffffffe46c -> 0x2e246c.
3405.589.000: system.cpu.dtb: Translating vaddr 0x4e3880 at pc 0x401f06 (mode == Read).
3405.589.000: system.cpu.dtb: In protected mode.
3405.589.000: system.cpu.dtb: Paging enabled.
3405.589.000: system.cpu.dtb: Handling a TLB miss for address 0x4e3880 at pc 0x401f06 (mode == Read).
3405.589.000: system.cpu.dtb: Mapping 0x4e3000 to 0xb9000
3405.589.000: system.cpu.dtb: Evicting address 0x5aa000.
3405.589.000: system.cpu.dtb: Miss was serviced.
3405.589.000: system.cpu.dtb: Entry found with paddr 0xb9000, doing protection checks.
3405.589.000: system.cpu.dtb: Translated 0x4e3880 -> 0xb9880.
3405.604.000: system.cpu.dtb: Translating vaddr 0x7fffffffe46c at pc 0x401f23 (mode == Write).
3405.604.000: system.cpu.dtb: In protected mode.
3405.604.000: system.cpu.dtb: Paging enabled.
3405.604.000: system.cpu.dtb: Entry found with paddr 0x2e2000, doing protection checks.
3405.604.000: system.cpu.dtb: Translated 0x7fffffffe46c -> 0x2e246c.
3405.604.500: system.cpu.dtb: Translating vaddr 0x7fffffffe4a0 at pc 0x401f23 (mode == Write).
3405.604.500: system.cpu.dtb: In protected mode.
3405.604.500: system.cpu.dtb: Paging enabled.
3405.604.500: system.cpu.dtb: Entry found with paddr 0x2e2000, doing protection checks.
3405.604.500: system.cpu.dtb: Translated 0x7fffffffe4a0 -> 0x2e24a0.
3405.610.500: system.cpu.itb: Translating vaddr 0x402000 at pc 0x401f3a (mode == Read).
3405.610.500: system.cpu.itb: In protected mode.
3405.610.500: system.cpu.itb: Paging enabled.
3405.610.500: system.cpu.itb: Entry found with paddr 0x1000, doing protection checks.
3405.610.500: system.cpu.itb: Translated 0x402000 -> 0x1000.
3405.611.500: system.cpu.dtb: Translating vaddr 0x7fffffffe4a0 at pc 0x401f3a (mode == Read).
3405.611.500: system.cpu.dtb: In protected mode.
3405.611.500: system.cpu.dtb: Paging enabled.
3405.611.500: system.cpu.dtb: Entry found with paddr 0x2e2000, doing protection checks.
3405.611.500: system.cpu.dtb: Translated 0x7fffffffe4a0 -> 0x2e24a0.
3405.611.500: system.cpu.dtb: Translating vaddr 0x7fffffffe478 at pc 0x401f3a (mode == Read).
3405.611.500: system.cpu.dtb: In protected mode.
3405.611.500: system.cpu.dtb: Paging enabled.
3405.611.500: system.cpu.dtb: Entry found with paddr 0x2e2000, doing protection checks.
3405.611.500: system.cpu.dtb: Translated 0x7fffffffe478 -> 0x2e2478.
3405.612.000: system.cpu.dtb: Translating vaddr 0x7fffffffe478 at pc 0x401f3a (mode == Read).
3405.612.000: system.cpu.dtb: In protected mode.
3405.612.000: system.cpu.dtb: Paging enabled.
3405.612.000: system.cpu.dtb: Entry found with paddr 0x2e2000, doing protection checks.
3405.612.000: system.cpu.dtb: Translated 0x7fffffffe478 -> 0x2e2478.
3405.612.500: system.cpu.dtb: Translating vaddr 0x7fffffffe478 at pc 0x401f3f (mode == Read).
3405.612.500: system.cpu.dtb: In protected mode.
3405.612.500: system.cpu.dtb: Paging enabled.
3405.612.500: system.cpu.dtb: Entry found with paddr 0x2e2000, doing protection checks.
3405.612.500: system.cpu.dtb: Translated 0x7fffffffe478 -> 0x2e2478.
3405.613.000: system.cpu.itb: Translating vaddr 0x42e500 at pc 0x401f3f (mode == Read).
3405.613.000: system.cpu.itb: In protected mode.
3405.613.000: system.cpu.itb: Paging enabled.
3405.613.000: system.cpu.itb: Entry found with paddr 0x2d000, doing protection checks.
3405.613.000: system.cpu.itb: Translated 0x42e500 -> 0x2d500.
3405.613.000: system.cpu.dtb: Translating vaddr 0x7fffffffe46c at pc 0x401f3f (mode == Write).
3405.613.000: system.cpu.dtb: In protected mode.
3405.613.000: system.cpu.dtb: Paging enabled.
3405.613.000: system.cpu.dtb: Entry found with paddr 0x2e2000, doing protection checks.
3405.613.000: system.cpu.dtb: Translated 0x7fffffffe46c -> 0x2e246c.
3405.613.000: system.cpu.dtb: Translating vaddr 0x7fffffffe438 at pc 0x401f3f (mode == Write).
3405.613.000: system.cpu.dtb: In protected mode.
3405.613.000: system.cpu.dtb: Paging enabled.
3405.613.000: system.cpu.dtb: Entry found with paddr 0x2e2000, doing protection checks.
3405.613.000: system.cpu.dtb: Translated 0x7fffffffe438 -> 0x2e2438.
3405.613.500: system.cpu.dtb: Translating vaddr 0x7fffffffe46c at pc 0x401f3f (mode == Read).
3405.613.500: system.cpu.dtb: In protected mode.
3405.613.500: system.cpu.dtb: Paging enabled.
3405.613.500: system.cpu.dtb: Entry found with paddr 0x2e2000, doing protection checks.
3405.613.500: system.cpu.dtb: Translated 0x7fffffffe46c -> 0x2e246c.
3405.613.500: system.cpu.dtb: Translating vaddr 0x7fffffffe47c at pc 0x401f3f (mode == Read).
3405.613.500: system.cpu.dtb: In protected mode.
3405.613.500: system.cpu.dtb: Paging enabled.
3405.613.500: system.cpu.dtb: Entry found with paddr 0x2e2000, doing protection checks.
3405.613.500: system.cpu.dtb: Translated 0x7fffffffe47c -> 0x2e247c.
3405.613.500: system.cpu.dtb: Translating vaddr 0x7fffffffe450 at pc 0x401f3f (mode == Read).
3405.613.500: system.cpu.dtb: In protected mode.
3405.613.500: system.cpu.dtb: Paging enabled.
3405.613.500: system.cpu.dtb: Entry found with paddr 0x2e2000, doing protection checks.
3405.613.500: system.cpu.dtb: Translated 0x7fffffffe450 -> 0x2e2450.
3405.614.000: system.cpu.dtb: Translating vaddr 0x7fffffffe4b8 at pc 0x401f3f (mode == Read).
3405.614.000: system.cpu.dtb: In protected mode.
3405.614.000: system.cpu.dtb: Paging enabled.
3405.614.000: system.cpu.dtb: Entry found with paddr 0x2e2000, doing protection checks.
3405.614.000: system.cpu.dtb: Translated 0x7fffffffe4b8 -> 0x2e24b8.
3405.614.500: system.cpu.itb: Translating vaddr 0x401c80 at pc 0x401f3f (mode == Read).
3405.614.500: system.cpu.itb: In protected mode.
3405.614.500: system.cpu.itb: Paging enabled.
3405.614.500: system.cpu.itb: Entry found with paddr 0, doing protection checks.
3405.614.500: system.cpu.itb: Translated 0x401c80 -> 0xc80.
3405.615.500: system.cpu.itb: Translating vaddr 0x42e500 at pc 0x401f3f (mode == Read).
3405.615.500: system.cpu.itb: In protected mode.
3405.615.500: system.cpu.itb: Paging enabled.
3405.615.500: system.cpu.itb: Entry found with paddr 0x2d000, doing protection checks.
3405.615.500: system.cpu.itb: Translated 0x42e500 -> 0x2d500.
3405.616.000: system.cpu.dtb: Translating vaddr 0x7fffffffe4b8 at pc 0x401f5d (mode == Write).
3405.616.000: system.cpu.dtb: In protected mode.
3405.616.000: system.cpu.dtb: Paging enabled.
3405.616.000: system.cpu.dtb: Entry found with paddr 0x2e2000, doing protection checks.
3405.616.000: system.cpu.dtb: Translated 0x7fffffffe4b8 -> 0x2e24b8.
3405.618.500: system.cpu.itb: Translating vaddr 0x45f200 at pc 0x401cae (mode == Read).
3405.618.500: system.cpu.itb: In protected mode.
3405.618.500: system.cpu.itb: Paging enabled.
3405.618.500: system.cpu.itb: Entry found with paddr 0x5e000, doing protection checks.
3405.618.500: system.cpu.itb: Translated 0x45f200 -> 0x5e200.
3405.619.000: system.cpu.dtb: Translating vaddr 0x7fffffffe438 at pc 0x401cae (mode == Read).
3405.619.000: system.cpu.dtb: In protected mode.
3405.619.000: system.cpu.dtb: Paging enabled.
3405.619.000: system.cpu.dtb: Entry found with paddr 0x2e2000, doing protection checks.
3405.619.000: system.cpu.dtb: Translated 0x7fffffffe438 -> 0x2e2438.
3405.620.000: system.cpu.dtb: Translating vaddr 0xfffffffffffffff9 at pc 0x401cae (mode == Read).
3405.620.000: system.cpu.dtb: In protected mode.
3405.620.000: system.cpu.dtb: Paging enabled.
3405.620.000: system.cpu.dtb: Handling a TLB miss for address 0xfffffffffffffff9 at pc 0x401cae (mode == Read).
3405.621.500: system.cpu.itb: Translating vaddr 0x401f80 at pc 0x401cae (mode == Read).
3405.621.500: system.cpu.itb: In protected mode.
3405.621.500: system.cpu.itb: Paging enabled.
3405.621.500: system.cpu.itb: Entry found with paddr 0, doing protection checks.
3405.621.500: system.cpu.itb: Translated 0x401f80 -> 0xf80.
========== Exiting @ tick 3405621500 because workbegin
0x2b
========== Exiting @ tick 3409275000 because workbegin
0x2a
3409.282.500: system.cpu.itb: Translating vaddr 0x401d40 at pc 0x401f01 (mode == Read).
3409.282.500: system.cpu.itb: In protected mode.
3409.282.500: system.cpu.itb: Paging enabled.
3409.282.500: system.cpu.itb: Entry found with paddr 0, doing protection checks.
3409.282.500: system.cpu.itb: Translated 0x401d40 -> 0xd40.
3409.283.000: system.cpu.dtb: Translating vaddr 0x7fffffffe4a8 at pc 0x401f01 (mode == Read).
3409.283.000: system.cpu.dtb: In protected mode.
3409.283.000: system.cpu.dtb: Paging enabled.
3409.283.000: system.cpu.dtb: Entry found with paddr 0x2e2000, doing protection checks.
3409.283.000: system.cpu.dtb: Translated 0x7fffffffe4a8 -> 0x2e24a8.
3409.283.000: system.cpu.dtb: Translating vaddr 0x7fffffffe488 at pc 0x401f01 (mode == Read).
3409.283.000: system.cpu.dtb: In protected mode.
3409.283.000: system.cpu.dtb: Paging enabled.
3409.283.000: system.cpu.dtb: Entry found with paddr 0x2e2000, doing protection checks.
3409.283.000: system.cpu.dtb: Translated 0x7fffffffe488 -> 0x2e2488.
3409.283.500: system.cpu.itb: Translating vaddr 0x401e80 at pc 0x401f01 (mode == Read).
3409.283.500: system.cpu.itb: In protected mode.
3409.283.500: system.cpu.itb: Paging enabled.
3409.283.500: system.cpu.itb: Entry found with paddr 0, doing protection checks.
3409.283.500: system.cpu.itb: Translated 0x401e80 -> 0xe80.
3409.284.500: system.cpu.itb: Translating vaddr 0x401ec0 at pc 0x401f06 (mode == Read).
3409.284.500: system.cpu.itb: In protected mode.
3409.284.500: system.cpu.itb: Paging enabled.
3409.284.500: system.cpu.itb: Entry found with paddr 0, doing protection checks.
3409.284.500: system.cpu.itb: Translated 0x401ec0 -> 0xec0.
3409.284.500: system.cpu.dtb: Translating vaddr 0x7fffffffe46c at pc 0x401f06 (mode == Write).
3409.284.500: system.cpu.dtb: In protected mode.
3409.284.500: system.cpu.dtb: Paging enabled.
3409.284.500: system.cpu.dtb: Entry found with paddr 0x2e2000, doing protection checks.
3409.284.500: system.cpu.dtb: Translated 0x7fffffffe46c -> 0x2e246c.
3409.285.000: system.cpu.dtb: Translating vaddr 0x4e4880 at pc 0x401f06 (mode == Read).
3409.285.000: system.cpu.dtb: In protected mode.
3409.285.000: system.cpu.dtb: Paging enabled.
3409.285.000: system.cpu.dtb: Handling a TLB miss for address 0x4e4880 at pc 0x401f06 (mode == Read).
3409.285.000: system.cpu.dtb: Mapping 0x4e4000 to 0xba000
3409.285.000: system.cpu.dtb: Evicting address 0x5ab000.
3409.285.000: system.cpu.dtb: Miss was serviced.
3409.285.000: system.cpu.dtb: Entry found with paddr 0xba000, doing protection checks.
3409.285.000: system.cpu.dtb: Translated 0x4e4880 -> 0xba880.
3409.300.000: system.cpu.dtb: Translating vaddr 0x7fffffffe46c at pc 0x401f23 (mode == Write).
3409.300.000: system.cpu.dtb: In protected mode.
3409.300.000: system.cpu.dtb: Paging enabled.
3409.300.000: system.cpu.dtb: Entry found with paddr 0x2e2000, doing protection checks.
3409.300.000: system.cpu.dtb: Translated 0x7fffffffe46c -> 0x2e246c.
3409.300.500: system.cpu.dtb: Translating vaddr 0x7fffffffe4a0 at pc 0x401f23 (mode == Write).
3409.300.500: system.cpu.dtb: In protected mode.
3409.300.500: system.cpu.dtb: Paging enabled.
3409.300.500: system.cpu.dtb: Entry found with paddr 0x2e2000, doing protection checks.
3409.300.500: system.cpu.dtb: Translated 0x7fffffffe4a0 -> 0x2e24a0.
3409.306.000: system.cpu.itb: Translating vaddr 0x401d40 at pc 0x401f3a (mode == Read).
3409.306.000: system.cpu.itb: In protected mode.
3409.306.000: system.cpu.itb: Paging enabled.
3409.306.000: system.cpu.itb: Entry found with paddr 0, doing protection checks.
3409.306.000: system.cpu.itb: Translated 0x401d40 -> 0xd40.
3409.307.500: system.cpu.itb: Translating vaddr 0x401d80 at pc 0x401f3a (mode == Read).
3409.307.500: system.cpu.itb: In protected mode.
3409.307.500: system.cpu.itb: Paging enabled.
3409.307.500: system.cpu.itb: Entry found with paddr 0, doing protection checks.
3409.307.500: system.cpu.itb: Translated 0x401d80 -> 0xd80.
3409.307.500: system.cpu.dtb: Translating vaddr 0x7fffffffe4a0 at pc 0x401f3a (mode == Read).
3409.307.500: system.cpu.dtb: In protected mode.
3409.307.500: system.cpu.dtb: Paging enabled.
3409.307.500: system.cpu.dtb: Entry found with paddr 0x2e2000, doing protection checks.
3409.307.500: system.cpu.dtb: Translated 0x7fffffffe4a0 -> 0x2e24a0.
3409.307.500: system.cpu.dtb: Translating vaddr 0x7fffffffe478 at pc 0x401f3a (mode == Read).
3409.307.500: system.cpu.dtb: In protected mode.
3409.307.500: system.cpu.dtb: Paging enabled.
3409.307.500: system.cpu.dtb: Entry found with paddr 0x2e2000, doing protection checks.
3409.307.500: system.cpu.dtb: Translated 0x7fffffffe478 -> 0x2e2478.
3409.308.000: system.cpu.dtb: Translating vaddr 0x7fffffffe478 at pc 0x401f3a (mode == Read).
3409.308.000: system.cpu.dtb: In protected mode.
3409.308.000: system.cpu.dtb: Paging enabled.
3409.308.000: system.cpu.dtb: Entry found with paddr 0x2e2000, doing protection checks.
3409.308.000: system.cpu.dtb: Translated 0x7fffffffe478 -> 0x2e2478.
3409.308.500: system.cpu.itb: Translating vaddr 0x401e80 at pc 0x401f3f (mode == Read).
3409.308.500: system.cpu.itb: In protected mode.
3409.308.500: system.cpu.itb: Paging enabled.
3409.308.500: system.cpu.itb: Entry found with paddr 0, doing protection checks.
3409.308.500: system.cpu.itb: Translated 0x401e80 -> 0xe80.
3409.309.000: system.cpu.dtb: Translating vaddr 0x7fffffffe46c at pc 0x401f3f (mode == Write).
3409.309.000: system.cpu.dtb: In protected mode.
3409.309.000: system.cpu.dtb: Paging enabled.
3409.309.000: system.cpu.dtb: Entry found with paddr 0x2e2000, doing protection checks.
3409.309.000: system.cpu.dtb: Translated 0x7fffffffe46c -> 0x2e246c.
3409.309.000: system.cpu.dtb: Translating vaddr 0x7fffffffe438 at pc 0x401f3f (mode == Write).
3409.309.000: system.cpu.dtb: In protected mode.
3409.309.000: system.cpu.dtb: Paging enabled.
3409.309.000: system.cpu.dtb: Entry found with paddr 0x2e2000, doing protection checks.
3409.309.000: system.cpu.dtb: Translated 0x7fffffffe438 -> 0x2e2438.
3409.309.000: system.cpu.dtb: Translating vaddr 0x7fffffffe438 at pc 0x401f3f (mode == Read).
3409.309.000: system.cpu.dtb: In protected mode.
3409.309.000: system.cpu.dtb: Paging enabled.
3409.309.000: system.cpu.dtb: Entry found with paddr 0x2e2000, doing protection checks.
3409.309.000: system.cpu.dtb: Translated 0x7fffffffe438 -> 0x2e2438.
3409.309.000: system.cpu.dtb: Translating vaddr 0x7fffffffe478 at pc 0x401f3f (mode == Read).
3409.309.000: system.cpu.dtb: In protected mode.
3409.309.000: system.cpu.dtb: Paging enabled.
3409.309.000: system.cpu.dtb: Entry found with paddr 0x2e2000, doing protection checks.
3409.309.000: system.cpu.dtb: Translated 0x7fffffffe478 -> 0x2e2478.
3409.310.000: system.cpu.itb: Translating vaddr 0x401ec0 at pc 0x401f46 (mode == Read).
3409.310.000: system.cpu.itb: In protected mode.
3409.310.000: system.cpu.itb: Paging enabled.
3409.310.000: system.cpu.itb: Entry found with paddr 0, doing protection checks.
3409.310.000: system.cpu.itb: Translated 0x401ec0 -> 0xec0.
3409.310.000: system.cpu.dtb: Translating vaddr 0x7fffffffe4c0 at pc 0x401f46 (mode == Read).
3409.310.000: system.cpu.dtb: In protected mode.
3409.310.000: system.cpu.dtb: Paging enabled.
3409.310.000: system.cpu.dtb: Entry found with paddr 0x2e2000, doing protection checks.
3409.310.000: system.cpu.dtb: Translated 0x7fffffffe4c0 -> 0x2e24c0.
3409.310.000: system.cpu.dtb: Translating vaddr 0x7fffffffe474 at pc 0x401f46 (mode == Write).
3409.310.000: system.cpu.dtb: In protected mode.
3409.310.000: system.cpu.dtb: Paging enabled.
3409.310.000: system.cpu.dtb: Entry found with paddr 0x2e2000, doing protection checks.
3409.310.000: system.cpu.dtb: Translated 0x7fffffffe474 -> 0x2e2474.
3409.310.000: system.cpu.dtb: Translating vaddr 0x7fffffffe474 at pc 0x401f46 (mode == Read).
3409.310.000: system.cpu.dtb: In protected mode.
3409.310.000: system.cpu.dtb: Paging enabled.
3409.310.000: system.cpu.dtb: Entry found with paddr 0x2e2000, doing protection checks.
3409.310.000: system.cpu.dtb: Translated 0x7fffffffe474 -> 0x2e2474.
3409.310.500: system.cpu.dtb: Translating vaddr 0x7fffffffe474 at pc 0x401f5b (mode == Read).
3409.310.500: system.cpu.dtb: In protected mode.
3409.310.500: system.cpu.dtb: Paging enabled.
3409.310.500: system.cpu.dtb: Entry found with paddr 0x2e2000, doing protection checks.
3409.310.500: system.cpu.dtb: Translated 0x7fffffffe474 -> 0x2e2474.
3409.311.000: system.cpu.dtb: Translating vaddr 0x7fffffffe478 at pc 0x401f5d (mode == Write).
3409.311.000: system.cpu.dtb: In protected mode.
3409.311.000: system.cpu.dtb: Paging enabled.
3409.311.000: system.cpu.dtb: Entry found with paddr 0x2e2000, doing protection checks.
3409.311.000: system.cpu.dtb: Translated 0x7fffffffe478 -> 0x2e2478.
3409.311.000: system.cpu.dtb: Translating vaddr 0x4df0f0 at pc 0x401f5d (mode == Read).
3409.311.000: system.cpu.dtb: In protected mode.
3409.311.000: system.cpu.dtb: Paging enabled.
3409.311.000: system.cpu.dtb: Entry found with paddr 0xb5000, doing protection checks.
3409.311.000: system.cpu.dtb: Translated 0x4df0f0 -> 0xb50f0.
3409.311.500: system.cpu.dtb: Translating vaddr 0x7fffffffe478 at pc 0x401f5d (mode == Read).
3409.311.500: system.cpu.dtb: In protected mode.
3409.311.500: system.cpu.dtb: Paging enabled.
3409.311.500: system.cpu.dtb: Entry found with paddr 0x2e2000, doing protection checks.
3409.311.500: system.cpu.dtb: Translated 0x7fffffffe478 -> 0x2e2478.
3409.311.500: system.cpu.dtb: Translating vaddr 0x7fffffffe47c at pc 0x401f5d (mode == Write).
3409.311.500: system.cpu.dtb: In protected mode.
3409.311.500: system.cpu.dtb: Paging enabled.
3409.311.500: system.cpu.dtb: Entry found with paddr 0x2e2000, doing protection checks.
3409.311.500: system.cpu.dtb: Translated 0x7fffffffe47c -> 0x2e247c.
3409.312.000: system.cpu.dtb: Translating vaddr 0x7fffffffe4c0 at pc 0x401f5d (mode == Write).
3409.312.000: system.cpu.dtb: In protected mode.
3409.312.000: system.cpu.dtb: Paging enabled.
3409.312.000: system.cpu.dtb: Entry found with paddr 0x2e2000, doing protection checks.
3409.312.000: system.cpu.dtb: Translated 0x7fffffffe4c0 -> 0x2e24c0.
3409.312.500: system.cpu.itb: Translating vaddr 0x401d40 at pc 0x401f5d (mode == Read).
3409.312.500: system.cpu.itb: In protected mode.
3409.312.500: system.cpu.itb: Paging enabled.
3409.312.500: system.cpu.itb: Entry found with paddr 0, doing protection checks.
3409.312.500: system.cpu.itb: Translated 0x401d40 -> 0xd40.
3409.314.000: system.cpu.itb: Translating vaddr 0x401d80 at pc 0x401f5d (mode == Read).
3409.314.000: system.cpu.itb: In protected mode.
3409.314.000: system.cpu.itb: Paging enabled.
3409.314.000: system.cpu.itb: Entry found with paddr 0, doing protection checks.
3409.314.000: system.cpu.itb: Translated 0x401d80 -> 0xd80.
3409.314.000: system.cpu.dtb: In protected mode.
3409.315.000: system.cpu.itb: Translating vaddr 0x401e80 at pc 0x401cae (mode == Read).
3409.315.000: system.cpu.itb: In protected mode.
3409.315.000: system.cpu.itb: Paging enabled.
3409.315.000: system.cpu.itb: Entry found with paddr 0, doing protection checks.
3409.315.000: system.cpu.itb: Translated 0x401e80 -> 0xe80.
3409.316.500: system.cpu.itb: Translating vaddr 0x401ec0 at pc 0x401cae (mode == Read).
3409.316.500: system.cpu.itb: In protected mode.
3409.316.500: system.cpu.itb: Paging enabled.
3409.316.500: system.cpu.itb: Entry found with paddr 0, doing protection checks.
3409.316.500: system.cpu.itb: Translated 0x401ec0 -> 0xec0.
3409.316.500: system.cpu.dtb: Translating vaddr 0x7fffffffe474 at pc 0x401cae (mode == Read).
3409.316.500: system.cpu.dtb: In protected mode.
3409.316.500: system.cpu.dtb: Paging enabled.
3409.316.500: system.cpu.dtb: Entry found with paddr 0x2e2000, doing protection checks.
3409.316.500: system.cpu.dtb: Translated 0x7fffffffe474 -> 0x2e2474.
3409.317.500: system.cpu.dtb: Translating vaddr 0x7fffffffe474 at pc 0x401cae (mode == Read).
3409.317.500: system.cpu.dtb: In protected mode.
3409.317.500: system.cpu.dtb: Paging enabled.
3409.317.500: system.cpu.dtb: Entry found with paddr 0x2e2000, doing protection checks.
3409.317.500: system.cpu.dtb: Translated 0x7fffffffe474 -> 0x2e2474.
3409.318.000: system.cpu.dtb: Translating vaddr 0x4df0f0 at pc 0x401cae (mode == Read).
3409.318.000: system.cpu.dtb: In protected mode.
3409.318.000: system.cpu.dtb: Paging enabled.
3409.318.000: system.cpu.dtb: Entry found with paddr 0xb5000, doing protection checks.
3409.318.000: system.cpu.dtb: Translated 0x4df0f0 -> 0xb50f0.
3409.318.500: system.cpu.itb: Translating vaddr 0x401f00 at pc 0x401cae (mode == Read).
3409.318.500: system.cpu.itb: In protected mode.
3409.318.500: system.cpu.itb: Paging enabled.
3409.318.500: system.cpu.itb: Entry found with paddr 0, doing protection checks.
3409.318.500: system.cpu.itb: Translated 0x401f00 -> 0xf00.
========== Exiting @ tick 3409318500 because workbegin
0x2b
========== Exiting @ tick 3412989500 because workbegin
0x2a
3412.997.000: system.cpu.itb: Translating vaddr 0x401d40 at pc 0x401f01 (mode == Read).
3412.997.000: system.cpu.itb: In protected mode.
3412.997.000: system.cpu.itb: Paging enabled.
3412.997.000: system.cpu.itb: Entry found with paddr 0, doing protection checks.
3412.997.000: system.cpu.itb: Translated 0x401d40 -> 0xd40.
3412.997.500: system.cpu.dtb: Translating vaddr 0x7fffffffe4a8 at pc 0x401f01 (mode == Read).
3412.997.500: system.cpu.dtb: In protected mode.
3412.997.500: system.cpu.dtb: Paging enabled.
3412.997.500: system.cpu.dtb: Entry found with paddr 0x2e2000, doing protection checks.
3412.997.500: system.cpu.dtb: Translated 0x7fffffffe4a8 -> 0x2e24a8.
3412.997.500: system.cpu.dtb: Translating vaddr 0x7fffffffe488 at pc 0x401f01 (mode == Read).
3412.997.500: system.cpu.dtb: In protected mode.
3412.997.500: system.cpu.dtb: Paging enabled.
3412.997.500: system.cpu.dtb: Entry found with paddr 0x2e2000, doing protection checks.
3412.997.500: system.cpu.dtb: Translated 0x7fffffffe488 -> 0x2e2488.
3412.998.000: system.cpu.itb: Translating vaddr 0x401e80 at pc 0x401f01 (mode == Read).
3412.998.000: system.cpu.itb: In protected mode.
3412.998.000: system.cpu.itb: Paging enabled.
3412.998.000: system.cpu.itb: Entry found with paddr 0, doing protection checks.
3412.998.000: system.cpu.itb: Translated 0x401e80 -> 0xe80.
3412.999.000: system.cpu.itb: Translating vaddr 0x401ec0 at pc 0x401f06 (mode == Read).
3412.999.000: system.cpu.itb: In protected mode.
3412.999.000: system.cpu.itb: Paging enabled.
3412.999.000: system.cpu.itb: Entry found with paddr 0, doing protection checks.
3412.999.000: system.cpu.itb: Translated 0x401ec0 -> 0xec0.
3412.999.000: system.cpu.dtb: Translating vaddr 0x7fffffffe46c at pc 0x401f06 (mode == Write).
3412.999.000: system.cpu.dtb: In protected mode.
3412.999.000: system.cpu.dtb: Paging enabled.
3412.999.000: system.cpu.dtb: Entry found with paddr 0x2e2000, doing protection checks.
3412.999.000: system.cpu.dtb: Translated 0x7fffffffe46c -> 0x2e246c.
3412.999.500: system.cpu.dtb: Translating vaddr 0x4e5880 at pc 0x401f06 (mode == Read).
3412.999.500: system.cpu.dtb: In protected mode.
3412.999.500: system.cpu.dtb: Paging enabled.
3412.999.500: system.cpu.dtb: Handling a TLB miss for address 0x4e5880 at pc 0x401f06 (mode == Read).
3412.999.500: system.cpu.dtb: Mapping 0x4e5000 to 0xbb000
3412.999.500: system.cpu.dtb: Evicting address 0x5ac000.
3412.999.500: system.cpu.dtb: Miss was serviced.
3412.999.500: system.cpu.dtb: Entry found with paddr 0xbb000, doing protection checks.
3412.999.500: system.cpu.dtb: Translated 0x4e5880 -> 0xbb880.
3413.014.500: system.cpu.dtb: Translating vaddr 0x7fffffffe46c at pc 0x401f23 (mode == Write).
3413.014.500: system.cpu.dtb: In protected mode.
3413.014.500: system.cpu.dtb: Paging enabled.
3413.014.500: system.cpu.dtb: Entry found with paddr 0x2e2000, doing protection checks.
3413.014.500: system.cpu.dtb: Translated 0x7fffffffe46c -> 0x2e246c.
3413.015.000: system.cpu.dtb: Translating vaddr 0x7fffffffe4a0 at pc 0x401f23 (mode == Write).
3413.015.000: system.cpu.dtb: In protected mode.
3413.015.000: system.cpu.dtb: Paging enabled.
3413.015.000: system.cpu.dtb: Entry found with paddr 0x2e2000, doing protection checks.
3413.015.000: system.cpu.dtb: Translated 0x7fffffffe4a0 -> 0x2e24a0.
3413.020.500: system.cpu.itb: Translating vaddr 0x401d40 at pc 0x401f3a (mode == Read).
3413.020.500: system.cpu.itb: In protected mode.
3413.020.500: system.cpu.itb: Paging enabled.
3413.020.500: system.cpu.itb: Entry found with paddr 0, doing protection checks.
3413.020.500: system.cpu.itb: Translated 0x401d40 -> 0xd40.
3413.022.000: system.cpu.itb: Translating vaddr 0x401d80 at pc 0x401f3a (mode == Read).
3413.022.000: system.cpu.itb: In protected mode.
3413.022.000: system.cpu.itb: Paging enabled.
3413.022.000: system.cpu.itb: Entry found with paddr 0, doing protection checks.
3413.022.000: system.cpu.itb: Translated 0x401d80 -> 0xd80.
3413.022.000: system.cpu.dtb: Translating vaddr 0x7fffffffe4a0 at pc 0x401f3a (mode == Read).
3413.022.000: system.cpu.dtb: In protected mode.
3413.022.000: system.cpu.dtb: Paging enabled.
3413.022.000: system.cpu.dtb: Entry found with paddr 0x2e2000, doing protection checks.
3413.022.000: system.cpu.dtb: Translated 0x7fffffffe4a0 -> 0x2e24a0.
3413.022.000: system.cpu.dtb: Translating vaddr 0x7fffffffe478 at pc 0x401f3a (mode == Read).
3413.022.000: system.cpu.dtb: In protected mode.
3413.022.000: system.cpu.dtb: Paging enabled.
3413.022.000: system.cpu.dtb: Entry found with paddr 0x2e2000, doing protection checks.
3413.022.000: system.cpu.dtb: Translated 0x7fffffffe478 -> 0x2e2478.
3413.022.500: system.cpu.dtb: Translating vaddr 0x7fffffffe478 at pc 0x401f3a (mode == Read).
3413.022.500: system.cpu.dtb: In protected mode.
3413.022.500: system.cpu.dtb: Paging enabled.
3413.022.500: system.cpu.dtb: Entry found with paddr 0x2e2000, doing protection checks.
3413.022.500: system.cpu.dtb: Translated 0x7fffffffe478 -> 0x2e2478.
3413.023.000: system.cpu.itb: Translating vaddr 0x401e80 at pc 0x401f3f (mode == Read).
3413.023.000: system.cpu.itb: In protected mode.
3413.023.000: system.cpu.itb: Paging enabled.
3413.023.000: system.cpu.itb: Entry found with paddr 0, doing protection checks.
3413.023.000: system.cpu.itb: Translated 0x401e80 -> 0xe80.
3413.023.500: system.cpu.dtb: Translating vaddr 0x7fffffffe46c at pc 0x401f3f (mode == Write).
3413.023.500: system.cpu.dtb: In protected mode.
3413.023.500: system.cpu.dtb: Paging enabled.
3413.023.500: system.cpu.dtb: Entry found with paddr 0x2e2000, doing protection checks.
3413.023.500: system.cpu.dtb: Translated 0x7fffffffe46c -> 0x2e246c.
3413.023.500: system.cpu.dtb: Translating vaddr 0x7fffffffe438 at pc 0x401f3f (mode == Write).
3413.023.500: system.cpu.dtb: In protected mode.
3413.023.500: system.cpu.dtb: Paging enabled.
3413.023.500: system.cpu.dtb: Entry found with paddr 0x2e2000, doing protection checks.
3413.023.500: system.cpu.dtb: Translated 0x7fffffffe438 -> 0x2e2438.
3413.023.500: system.cpu.dtb: Translating vaddr 0x7fffffffe438 at pc 0x401f3f (mode == Read).
3413.023.500: system.cpu.dtb: In protected mode.
3413.023.500: system.cpu.dtb: Paging enabled.
3413.023.500: system.cpu.dtb: Entry found with paddr 0x2e2000, doing protection checks.
3413.023.500: system.cpu.dtb: Translated 0x7fffffffe438 -> 0x2e2438.
3413.023.500: system.cpu.dtb: Translating vaddr 0x7fffffffe478 at pc 0x401f3f (mode == Read).
3413.023.500: system.cpu.dtb: In protected mode.
3413.023.500: system.cpu.dtb: Paging enabled.
3413.023.500: system.cpu.dtb: Entry found with paddr 0x2e2000, doing protection checks.
3413.023.500: system.cpu.dtb: Translated 0x7fffffffe478 -> 0x2e2478.
3413.024.000: system.cpu.dtb: Translating vaddr 0x7fffffffe478 at pc 0x401f3f (mode == Read).
3413.024.000: system.cpu.dtb: In protected mode.
3413.024.000: system.cpu.dtb: Paging enabled.
3413.024.000: system.cpu.dtb: Entry found with paddr 0x2e2000, doing protection checks.
3413.024.000: system.cpu.dtb: Translated 0x7fffffffe478 -> 0x2e2478.
3413.024.500: system.cpu.itb: Translating vaddr 0x401ec0 at pc 0x401f46 (mode == Read).
3413.024.500: system.cpu.itb: In protected mode.
3413.024.500: system.cpu.itb: Paging enabled.
3413.024.500: system.cpu.itb: Entry found with paddr 0, doing protection checks.
3413.024.500: system.cpu.itb: Translated 0x401ec0 -> 0xec0.
3413.024.500: system.cpu.dtb: Translating vaddr 0x7fffffffe4c8 at pc 0x401f46 (mode == Read).
3413.024.500: system.cpu.dtb: In protected mode.
3413.024.500: system.cpu.dtb: Paging enabled.
3413.024.500: system.cpu.dtb: Entry found with paddr 0x2e2000, doing protection checks.
3413.024.500: system.cpu.dtb: Translated 0x7fffffffe4c8 -> 0x2e24c8.
3413.024.500: system.cpu.dtb: Translating vaddr 0x7fffffffe474 at pc 0x401f46 (mode == Write).
3413.024.500: system.cpu.dtb: In protected mode.
3413.024.500: system.cpu.dtb: Paging enabled.
3413.024.500: system.cpu.dtb: Entry found with paddr 0x2e2000, doing protection checks.
3413.024.500: system.cpu.dtb: Translated 0x7fffffffe474 -> 0x2e2474.
3413.024.500: system.cpu.dtb: Translating vaddr 0x7fffffffe474 at pc 0x401f46 (mode == Read).
3413.024.500: system.cpu.dtb: In protected mode.
3413.024.500: system.cpu.dtb: Paging enabled.
3413.024.500: system.cpu.dtb: Entry found with paddr 0x2e2000, doing protection checks.
3413.024.500: system.cpu.dtb: Translated 0x7fffffffe474 -> 0x2e2474.
3413.025.000: system.cpu.dtb: Translating vaddr 0x7fffffffe474 at pc 0x401f5b (mode == Read).
3413.025.000: system.cpu.dtb: In protected mode.
3413.025.000: system.cpu.dtb: Paging enabled.
3413.025.000: system.cpu.dtb: Entry found with paddr 0x2e2000, doing protection checks.
3413.025.000: system.cpu.dtb: Translated 0x7fffffffe474 -> 0x2e2474.
3413.025.500: system.cpu.dtb: Translating vaddr 0x7fffffffe478 at pc 0x401f5d (mode == Write).
3413.025.500: system.cpu.dtb: In protected mode.
3413.025.500: system.cpu.dtb: Paging enabled.
3413.025.500: system.cpu.dtb: Entry found with paddr 0x2e2000, doing protection checks.
3413.025.500: system.cpu.dtb: Translated 0x7fffffffe478 -> 0x2e2478.
3413.025.500: system.cpu.dtb: Translating vaddr 0x4df0f0 at pc 0x401f5d (mode == Read).
3413.025.500: system.cpu.dtb: In protected mode.
3413.025.500: system.cpu.dtb: Paging enabled.
3413.025.500: system.cpu.dtb: Entry found with paddr 0xb5000, doing protection checks.
3413.025.500: system.cpu.dtb: Translated 0x4df0f0 -> 0xb50f0.
3413.026.000: system.cpu.dtb: Translating vaddr 0x7fffffffe47c at pc 0x401f5d (mode == Write).
3413.026.000: system.cpu.dtb: In protected mode.
3413.026.000: system.cpu.dtb: Paging enabled.
3413.026.000: system.cpu.dtb: Entry found with paddr 0x2e2000, doing protection checks.
3413.026.000: system.cpu.dtb: Translated 0x7fffffffe47c -> 0x2e247c.
3413.026.500: system.cpu.dtb: Translating vaddr 0x7fffffffe4c8 at pc 0x401f5d (mode == Write).
3413.026.500: system.cpu.dtb: In protected mode.
3413.026.500: system.cpu.dtb: Paging enabled.
3413.026.500: system.cpu.dtb: Entry found with paddr 0x2e2000, doing protection checks.
3413.026.500: system.cpu.dtb: Translated 0x7fffffffe4c8 -> 0x2e24c8.
3413.027.000: system.cpu.itb: Translating vaddr 0x401f80 at pc 0x401f5d (mode == Read).
3413.027.000: system.cpu.itb: In protected mode.
3413.027.000: system.cpu.itb: Paging enabled.
3413.027.000: system.cpu.itb: Entry found with paddr 0, doing protection checks.
3413.027.000: system.cpu.itb: Translated 0x401f80 -> 0xf80.
3413.028.000: system.cpu.itb: Translating vaddr 0x401d40 at pc 0x401f5d (mode == Read).
3413.028.000: system.cpu.itb: In protected mode.
3413.028.000: system.cpu.itb: Paging enabled.
3413.028.000: system.cpu.itb: Entry found with paddr 0, doing protection checks.
3413.028.000: system.cpu.itb: Translated 0x401d40 -> 0xd40.
3413.029.000: system.cpu.itb: Translating vaddr 0x401e80 at pc 0x401f5d (mode == Read).
3413.029.000: system.cpu.itb: In protected mode.
3413.029.000: system.cpu.itb: Paging enabled.
3413.029.000: system.cpu.itb: Entry found with paddr 0, doing protection checks.
3413.029.000: system.cpu.itb: Translated 0x401e80 -> 0xe80.
3413.030.000: system.cpu.itb: Translating vaddr 0x401ec0 at pc 0x401cae (mode == Read).
3413.030.000: system.cpu.itb: In protected mode.
3413.030.000: system.cpu.itb: Paging enabled.
3413.030.000: system.cpu.itb: Entry found with paddr 0, doing protection checks.
3413.030.000: system.cpu.itb: Translated 0x401ec0 -> 0xec0.
3413.031.000: system.cpu.itb: Translating vaddr 0x401d40 at pc 0x401cae (mode == Read).
3413.031.000: system.cpu.itb: In protected mode.
3413.031.000: system.cpu.itb: Paging enabled.
3413.031.000: system.cpu.itb: Entry found with paddr 0, doing protection checks.
3413.031.000: system.cpu.itb: Translated 0x401d40 -> 0xd40.
3413.031.500: system.cpu.dtb: Translating vaddr 0x7fffffffe478 at pc 0x401cae (mode == Read).
3413.031.500: system.cpu.dtb: In protected mode.
3413.031.500: system.cpu.dtb: Paging enabled.
3413.031.500: system.cpu.dtb: Entry found with paddr 0x2e2000, doing protection checks.
3413.031.500: system.cpu.dtb: Translated 0x7fffffffe478 -> 0x2e2478.
3413.032.500: system.cpu.itb: Translating vaddr 0x401d80 at pc 0x401cae (mode == Read).
3413.032.500: system.cpu.itb: In protected mode.
3413.032.500: system.cpu.itb: Paging enabled.
3413.032.500: system.cpu.itb: Entry found with paddr 0, doing protection checks.
3413.032.500: system.cpu.itb: Translated 0x401d80 -> 0xd80.
3413.033.500: system.cpu.itb: Translating vaddr 0x401e80 at pc 0x401cae (mode == Read).
3413.033.500: system.cpu.itb: In protected mode.
3413.033.500: system.cpu.itb: Paging enabled.
3413.033.500: system.cpu.itb: Entry found with paddr 0, doing protection checks.
3413.033.500: system.cpu.itb: Translated 0x401e80 -> 0xe80.
3413.033.500: system.cpu.dtb: Translating vaddr 0x7fffffffe474 at pc 0x401cae (mode == Read).
3413.033.500: system.cpu.dtb: In protected mode.
3413.033.500: system.cpu.dtb: Paging enabled.
3413.033.500: system.cpu.dtb: Entry found with paddr 0x2e2000, doing protection checks.
3413.033.500: system.cpu.dtb: Translated 0x7fffffffe474 -> 0x2e2474.
========== Exiting @ tick 3413033500 because workbegin
0x2b
========== Exiting @ tick 3416682500 because workbegin
0x2a
3416.690.000: system.cpu.itb: Translating vaddr 0x401d40 at pc 0x401f01 (mode == Read).
3416.690.000: system.cpu.itb: In protected mode.
3416.690.000: system.cpu.itb: Paging enabled.
3416.690.000: system.cpu.itb: Entry found with paddr 0, doing protection checks.
3416.690.000: system.cpu.itb: Translated 0x401d40 -> 0xd40.
3416.690.500: system.cpu.dtb: Translating vaddr 0x7fffffffe4a8 at pc 0x401f01 (mode == Read).
3416.690.500: system.cpu.dtb: In protected mode.
3416.690.500: system.cpu.dtb: Paging enabled.
3416.690.500: system.cpu.dtb: Entry found with paddr 0x2e2000, doing protection checks.
3416.690.500: system.cpu.dtb: Translated 0x7fffffffe4a8 -> 0x2e24a8.
3416.690.500: system.cpu.dtb: Translating vaddr 0x7fffffffe488 at pc 0x401f01 (mode == Read).
3416.690.500: system.cpu.dtb: In protected mode.
3416.690.500: system.cpu.dtb: Paging enabled.
3416.690.500: system.cpu.dtb: Entry found with paddr 0x2e2000, doing protection checks.
3416.690.500: system.cpu.dtb: Translated 0x7fffffffe488 -> 0x2e2488.
3416.691.000: system.cpu.itb: Translating vaddr 0x401e80 at pc 0x401f01 (mode == Read).
3416.691.000: system.cpu.itb: In protected mode.
3416.691.000: system.cpu.itb: Paging enabled.
3416.691.000: system.cpu.itb: Entry found with paddr 0, doing protection checks.
3416.691.000: system.cpu.itb: Translated 0x401e80 -> 0xe80.
3416.692.000: system.cpu.itb: Translating vaddr 0x401ec0 at pc 0x401f06 (mode == Read).
3416.692.000: system.cpu.itb: In protected mode.
3416.692.000: system.cpu.itb: Paging enabled.
3416.692.000: system.cpu.itb: Entry found with paddr 0, doing protection checks.
3416.692.000: system.cpu.itb: Translated 0x401ec0 -> 0xec0.
3416.692.000: system.cpu.dtb: Translating vaddr 0x7fffffffe46c at pc 0x401f06 (mode == Write).
3416.692.000: system.cpu.dtb: In protected mode.
3416.692.000: system.cpu.dtb: Paging enabled.
3416.692.000: system.cpu.dtb: Entry found with paddr 0x2e2000, doing protection checks.
3416.692.000: system.cpu.dtb: Translated 0x7fffffffe46c -> 0x2e246c.
3416.692.500: system.cpu.dtb: Translating vaddr 0x4e6880 at pc 0x401f06 (mode == Read).
3416.692.500: system.cpu.dtb: In protected mode.
3416.692.500: system.cpu.dtb: Paging enabled.
3416.692.500: system.cpu.dtb: Handling a TLB miss for address 0x4e6880 at pc 0x401f06 (mode == Read).
3416.692.500: system.cpu.dtb: Mapping 0x4e6000 to 0xbc000
3416.692.500: system.cpu.dtb: Evicting address 0x5ad000.
3416.692.500: system.cpu.dtb: Miss was serviced.
3416.692.500: system.cpu.dtb: Entry found with paddr 0xbc000, doing protection checks.
3416.692.500: system.cpu.dtb: Translated 0x4e6880 -> 0xbc880.
3416.707.500: system.cpu.dtb: Translating vaddr 0x7fffffffe46c at pc 0x401f23 (mode == Write).
3416.707.500: system.cpu.dtb: In protected mode.
3416.707.500: system.cpu.dtb: Paging enabled.
3416.707.500: system.cpu.dtb: Entry found with paddr 0x2e2000, doing protection checks.
3416.707.500: system.cpu.dtb: Translated 0x7fffffffe46c -> 0x2e246c.
3416.708.000: system.cpu.dtb: Translating vaddr 0x7fffffffe4a0 at pc 0x401f23 (mode == Write).
3416.708.000: system.cpu.dtb: In protected mode.
3416.708.000: system.cpu.dtb: Paging enabled.
3416.708.000: system.cpu.dtb: Entry found with paddr 0x2e2000, doing protection checks.
3416.708.000: system.cpu.dtb: Translated 0x7fffffffe4a0 -> 0x2e24a0.
3416.713.500: system.cpu.itb: Translating vaddr 0x401d40 at pc 0x401f3a (mode == Read).
3416.713.500: system.cpu.itb: In protected mode.
3416.713.500: system.cpu.itb: Paging enabled.
3416.713.500: system.cpu.itb: Entry found with paddr 0, doing protection checks.
3416.713.500: system.cpu.itb: Translated 0x401d40 -> 0xd40.
3416.715.000: system.cpu.itb: Translating vaddr 0x401d80 at pc 0x401f3a (mode == Read).
3416.715.000: system.cpu.itb: In protected mode.
3416.715.000: system.cpu.itb: Paging enabled.
3416.715.000: system.cpu.itb: Entry found with paddr 0, doing protection checks.
3416.715.000: system.cpu.itb: Translated 0x401d80 -> 0xd80.
3416.715.000: system.cpu.dtb: Translating vaddr 0x7fffffffe4a0 at pc 0x401f3a (mode == Read).
3416.715.000: system.cpu.dtb: In protected mode.
3416.715.000: system.cpu.dtb: Paging enabled.
3416.715.000: system.cpu.dtb: Entry found with paddr 0x2e2000, doing protection checks.
3416.715.000: system.cpu.dtb: Translated 0x7fffffffe4a0 -> 0x2e24a0.
3416.715.000: system.cpu.dtb: Translating vaddr 0x7fffffffe478 at pc 0x401f3a (mode == Read).
3416.715.000: system.cpu.dtb: In protected mode.
3416.715.000: system.cpu.dtb: Paging enabled.
3416.715.000: system.cpu.dtb: Entry found with paddr 0x2e2000, doing protection checks.
3416.715.000: system.cpu.dtb: Translated 0x7fffffffe478 -> 0x2e2478.
3416.715.500: system.cpu.dtb: Translating vaddr 0x7fffffffe478 at pc 0x401f3a (mode == Read).
3416.715.500: system.cpu.dtb: In protected mode.
3416.715.500: system.cpu.dtb: Paging enabled.
3416.715.500: system.cpu.dtb: Entry found with paddr 0x2e2000, doing protection checks.
3416.715.500: system.cpu.dtb: Translated 0x7fffffffe478 -> 0x2e2478.
3416.716.000: system.cpu.itb: Translating vaddr 0x401e80 at pc 0x401f3f (mode == Read).
3416.716.000: system.cpu.itb: In protected mode.
3416.716.000: system.cpu.itb: Paging enabled.
3416.716.000: system.cpu.itb: Entry found with paddr 0, doing protection checks.
3416.716.000: system.cpu.itb: Translated 0x401e80 -> 0xe80.
3416.716.500: system.cpu.dtb: Translating vaddr 0x7fffffffe46c at pc 0x401f3f (mode == Write).
3416.716.500: system.cpu.dtb: In protected mode.
3416.716.500: system.cpu.dtb: Paging enabled.
3416.716.500: system.cpu.dtb: Entry found with paddr 0x2e2000, doing protection checks.
3416.716.500: system.cpu.dtb: Translated 0x7fffffffe46c -> 0x2e246c.
3416.716.500: system.cpu.dtb: Translating vaddr 0x7fffffffe438 at pc 0x401f3f (mode == Write).
3416.716.500: system.cpu.dtb: In protected mode.
3416.716.500: system.cpu.dtb: Paging enabled.
3416.716.500: system.cpu.dtb: Entry found with paddr 0x2e2000, doing protection checks.
3416.716.500: system.cpu.dtb: Translated 0x7fffffffe438 -> 0x2e2438.
3416.716.500: system.cpu.dtb: Translating vaddr 0x7fffffffe438 at pc 0x401f3f (mode == Read).
3416.716.500: system.cpu.dtb: In protected mode.
3416.716.500: system.cpu.dtb: Paging enabled.
3416.716.500: system.cpu.dtb: Entry found with paddr 0x2e2000, doing protection checks.
3416.716.500: system.cpu.dtb: Translated 0x7fffffffe438 -> 0x2e2438.
3416.716.500: system.cpu.dtb: Translating vaddr 0x7fffffffe478 at pc 0x401f3f (mode == Read).
3416.716.500: system.cpu.dtb: In protected mode.
3416.716.500: system.cpu.dtb: Paging enabled.
3416.716.500: system.cpu.dtb: Entry found with paddr 0x2e2000, doing protection checks.
3416.716.500: system.cpu.dtb: Translated 0x7fffffffe478 -> 0x2e2478.
3416.717.500: system.cpu.itb: Translating vaddr 0x401ec0 at pc 0x401f46 (mode == Read).
3416.717.500: system.cpu.itb: In protected mode.
3416.717.500: system.cpu.itb: Paging enabled.
3416.717.500: system.cpu.itb: Entry found with paddr 0, doing protection checks.
3416.717.500: system.cpu.itb: Translated 0x401ec0 -> 0xec0.
3416.717.500: system.cpu.dtb: Translating vaddr 0x7fffffffe4d0 at pc 0x401f46 (mode == Read).
3416.717.500: system.cpu.dtb: In protected mode.
3416.717.500: system.cpu.dtb: Paging enabled.
3416.717.500: system.cpu.dtb: Entry found with paddr 0x2e2000, doing protection checks.
3416.717.500: system.cpu.dtb: Translated 0x7fffffffe4d0 -> 0x2e24d0.
3416.717.500: system.cpu.dtb: Translating vaddr 0x7fffffffe474 at pc 0x401f46 (mode == Write).
3416.717.500: system.cpu.dtb: In protected mode.
3416.717.500: system.cpu.dtb: Paging enabled.
3416.717.500: system.cpu.dtb: Entry found with paddr 0x2e2000, doing protection checks.
3416.717.500: system.cpu.dtb: Translated 0x7fffffffe474 -> 0x2e2474.
3416.718.000: system.cpu.dtb: Translating vaddr 0x7fffffffe474 at pc 0x401f5b (mode == Read).
3416.718.000: system.cpu.dtb: In protected mode.
3416.718.000: system.cpu.dtb: Paging enabled.
3416.718.000: system.cpu.dtb: Entry found with paddr 0x2e2000, doing protection checks.
3416.718.000: system.cpu.dtb: Translated 0x7fffffffe474 -> 0x2e2474.
3416.718.000: system.cpu.dtb: Translating vaddr 0x7fffffffe474 at pc 0x401f5b (mode == Read).
3416.718.000: system.cpu.dtb: In protected mode.
3416.718.000: system.cpu.dtb: Paging enabled.
3416.718.000: system.cpu.dtb: Entry found with paddr 0x2e2000, doing protection checks.
3416.718.000: system.cpu.dtb: Translated 0x7fffffffe474 -> 0x2e2474.
3416.718.000: system.cpu.dtb: Translating vaddr 0x4df0f0 at pc 0x401f5b (mode == Read).
3416.718.000: system.cpu.dtb: In protected mode.
3416.718.000: system.cpu.dtb: Paging enabled.
3416.718.000: system.cpu.dtb: Entry found with paddr 0xb5000, doing protection checks.
3416.718.000: system.cpu.dtb: Translated 0x4df0f0 -> 0xb50f0.
3416.718.500: system.cpu.dtb: Translating vaddr 0x7fffffffe478 at pc 0x401f5d (mode == Write).
3416.718.500: system.cpu.dtb: In protected mode.
3416.718.500: system.cpu.dtb: Paging enabled.
3416.718.500: system.cpu.dtb: Entry found with paddr 0x2e2000, doing protection checks.
3416.718.500: system.cpu.dtb: Translated 0x7fffffffe478 -> 0x2e2478.
3416.719.000: system.cpu.itb: Translating vaddr 0x401c80 at pc 0x401f5d (mode == Read).
3416.719.000: system.cpu.itb: In protected mode.
3416.719.000: system.cpu.itb: Paging enabled.
3416.719.000: system.cpu.itb: Entry found with paddr 0, doing protection checks.
3416.719.000: system.cpu.itb: Translated 0x401c80 -> 0xc80.
3416.719.000: system.cpu.dtb: Translating vaddr 0x7fffffffe478 at pc 0x401f5d (mode == Read).
3416.719.000: system.cpu.dtb: In protected mode.
3416.719.000: system.cpu.dtb: Paging enabled.
3416.719.000: system.cpu.dtb: Entry found with paddr 0x2e2000, doing protection checks.
3416.719.000: system.cpu.dtb: Translated 0x7fffffffe478 -> 0x2e2478.
3416.719.000: system.cpu.dtb: Translating vaddr 0x7fffffffe47c at pc 0x401f5d (mode == Write).
3416.719.000: system.cpu.dtb: In protected mode.
3416.719.000: system.cpu.dtb: Paging enabled.
3416.719.000: system.cpu.dtb: Entry found with paddr 0x2e2000, doing protection checks.
3416.719.000: system.cpu.dtb: Translated 0x7fffffffe47c -> 0x2e247c.
3416.719.500: system.cpu.dtb: Translating vaddr 0x7fffffffe4d0 at pc 0x401f5d (mode == Write).
3416.719.500: system.cpu.dtb: In protected mode.
3416.719.500: system.cpu.dtb: Paging enabled.
3416.719.500: system.cpu.dtb: Entry found with paddr 0x2e2000, doing protection checks.
3416.719.500: system.cpu.dtb: Translated 0x7fffffffe4d0 -> 0x2e24d0.
3416.720.000: system.cpu.itb: Translating vaddr 0x401ec0 at pc 0x401f5d (mode == Read).
3416.720.000: system.cpu.itb: In protected mode.
3416.720.000: system.cpu.itb: Paging enabled.
3416.720.000: system.cpu.itb: Entry found with paddr 0, doing protection checks.
3416.720.000: system.cpu.itb: Translated 0x401ec0 -> 0xec0.
3416.721.000: system.cpu.itb: Translating vaddr 0x401d40 at pc 0x401f5d (mode == Read).
3416.721.000: system.cpu.itb: In protected mode.
3416.721.000: system.cpu.itb: Paging enabled.
3416.721.000: system.cpu.itb: Entry found with paddr 0, doing protection checks.
3416.721.000: system.cpu.itb: Translated 0x401d40 -> 0xd40.
3416.721.500: system.cpu.dtb: In protected mode.
3416.722.500: system.cpu.itb: Translating vaddr 0x401d80 at pc 0x401cae (mode == Read).
3416.722.500: system.cpu.itb: In protected mode.
3416.722.500: system.cpu.itb: Paging enabled.
3416.722.500: system.cpu.itb: Entry found with paddr 0, doing protection checks.
3416.722.500: system.cpu.itb: Translated 0x401d80 -> 0xd80.
3416.723.500: system.cpu.itb: Translating vaddr 0x401e80 at pc 0x401cae (mode == Read).
3416.723.500: system.cpu.itb: In protected mode.
3416.723.500: system.cpu.itb: Paging enabled.
3416.723.500: system.cpu.itb: Entry found with paddr 0, doing protection checks.
3416.723.500: system.cpu.itb: Translated 0x401e80 -> 0xe80.
3416.724.000: system.cpu.dtb: Translating vaddr 0x7fffffffe474 at pc 0x401cae (mode == Read).
3416.724.000: system.cpu.dtb: In protected mode.
3416.724.000: system.cpu.dtb: Paging enabled.
3416.724.000: system.cpu.dtb: Entry found with paddr 0x2e2000, doing protection checks.
3416.724.000: system.cpu.dtb: Translated 0x7fffffffe474 -> 0x2e2474.
3416.725.000: system.cpu.itb: Translating vaddr 0x401ec0 at pc 0x401cae (mode == Read).
3416.725.000: system.cpu.itb: In protected mode.
3416.725.000: system.cpu.itb: Paging enabled.
3416.725.000: system.cpu.itb: Entry found with paddr 0, doing protection checks.
3416.725.000: system.cpu.itb: Translated 0x401ec0 -> 0xec0.
3416.726.000: system.cpu.dtb: Translating vaddr 0x7fffffffe474 at pc 0x401cae (mode == Read).
3416.726.000: system.cpu.dtb: In protected mode.
3416.726.000: system.cpu.dtb: Paging enabled.
3416.726.000: system.cpu.dtb: Entry found with paddr 0x2e2000, doing protection checks.
3416.726.000: system.cpu.dtb: Translated 0x7fffffffe474 -> 0x2e2474.
========== Exiting @ tick 3416726000 because workbegin
0x2b
========== Exiting @ tick 3420372000 because workbegin
0x2a
3420.379.500: system.cpu.itb: Translating vaddr 0x401d40 at pc 0x401f01 (mode == Read).
3420.379.500: system.cpu.itb: In protected mode.
3420.379.500: system.cpu.itb: Paging enabled.
3420.379.500: system.cpu.itb: Entry found with paddr 0, doing protection checks.
3420.379.500: system.cpu.itb: Translated 0x401d40 -> 0xd40.
3420.380.000: system.cpu.dtb: Translating vaddr 0x7fffffffe4a8 at pc 0x401f01 (mode == Read).
3420.380.000: system.cpu.dtb: In protected mode.
3420.380.000: system.cpu.dtb: Paging enabled.
3420.380.000: system.cpu.dtb: Entry found with paddr 0x2e2000, doing protection checks.
3420.380.000: system.cpu.dtb: Translated 0x7fffffffe4a8 -> 0x2e24a8.
3420.380.000: system.cpu.dtb: Translating vaddr 0x7fffffffe488 at pc 0x401f01 (mode == Read).
3420.380.000: system.cpu.dtb: In protected mode.
3420.380.000: system.cpu.dtb: Paging enabled.
3420.380.000: system.cpu.dtb: Entry found with paddr 0x2e2000, doing protection checks.
3420.380.000: system.cpu.dtb: Translated 0x7fffffffe488 -> 0x2e2488.
3420.380.500: system.cpu.itb: Translating vaddr 0x401e80 at pc 0x401f01 (mode == Read).
3420.380.500: system.cpu.itb: In protected mode.
3420.380.500: system.cpu.itb: Paging enabled.
3420.380.500: system.cpu.itb: Entry found with paddr 0, doing protection checks.
3420.380.500: system.cpu.itb: Translated 0x401e80 -> 0xe80.
3420.381.500: system.cpu.itb: Translating vaddr 0x401ec0 at pc 0x401f06 (mode == Read).
3420.381.500: system.cpu.itb: In protected mode.
3420.381.500: system.cpu.itb: Paging enabled.
3420.381.500: system.cpu.itb: Entry found with paddr 0, doing protection checks.
3420.381.500: system.cpu.itb: Translated 0x401ec0 -> 0xec0.
3420.381.500: system.cpu.dtb: Translating vaddr 0x7fffffffe46c at pc 0x401f06 (mode == Write).
3420.381.500: system.cpu.dtb: In protected mode.
3420.381.500: system.cpu.dtb: Paging enabled.
3420.381.500: system.cpu.dtb: Entry found with paddr 0x2e2000, doing protection checks.
3420.381.500: system.cpu.dtb: Translated 0x7fffffffe46c -> 0x2e246c.
3420.382.000: system.cpu.dtb: Translating vaddr 0x4e7880 at pc 0x401f06 (mode == Read).
3420.382.000: system.cpu.dtb: In protected mode.
3420.382.000: system.cpu.dtb: Paging enabled.
3420.382.000: system.cpu.dtb: Handling a TLB miss for address 0x4e7880 at pc 0x401f06 (mode == Read).
3420.382.000: system.cpu.dtb: Mapping 0x4e7000 to 0xbd000
3420.382.000: system.cpu.dtb: Evicting address 0x5ae000.
3420.382.000: system.cpu.dtb: Miss was serviced.
3420.382.000: system.cpu.dtb: Entry found with paddr 0xbd000, doing protection checks.
3420.382.000: system.cpu.dtb: Translated 0x4e7880 -> 0xbd880.
3420.397.000: system.cpu.dtb: Translating vaddr 0x7fffffffe46c at pc 0x401f23 (mode == Write).
3420.397.000: system.cpu.dtb: In protected mode.
3420.397.000: system.cpu.dtb: Paging enabled.
3420.397.000: system.cpu.dtb: Entry found with paddr 0x2e2000, doing protection checks.
3420.397.000: system.cpu.dtb: Translated 0x7fffffffe46c -> 0x2e246c.
3420.397.500: system.cpu.dtb: Translating vaddr 0x7fffffffe4a0 at pc 0x401f23 (mode == Write).
3420.397.500: system.cpu.dtb: In protected mode.
3420.397.500: system.cpu.dtb: Paging enabled.
3420.397.500: system.cpu.dtb: Entry found with paddr 0x2e2000, doing protection checks.
3420.397.500: system.cpu.dtb: Translated 0x7fffffffe4a0 -> 0x2e24a0.
3420.403.000: system.cpu.itb: Translating vaddr 0x401d40 at pc 0x401f3a (mode == Read).
3420.403.000: system.cpu.itb: In protected mode.
3420.403.000: system.cpu.itb: Paging enabled.
3420.403.000: system.cpu.itb: Entry found with paddr 0, doing protection checks.
3420.403.000: system.cpu.itb: Translated 0x401d40 -> 0xd40.
3420.404.500: system.cpu.itb: Translating vaddr 0x401d80 at pc 0x401f3a (mode == Read).
3420.404.500: system.cpu.itb: In protected mode.
3420.404.500: system.cpu.itb: Paging enabled.
3420.404.500: system.cpu.itb: Entry found with paddr 0, doing protection checks.
3420.404.500: system.cpu.itb: Translated 0x401d80 -> 0xd80.
3420.404.500: system.cpu.dtb: Translating vaddr 0x7fffffffe4a0 at pc 0x401f3a (mode == Read).
3420.404.500: system.cpu.dtb: In protected mode.
3420.404.500: system.cpu.dtb: Paging enabled.
3420.404.500: system.cpu.dtb: Entry found with paddr 0x2e2000, doing protection checks.
3420.404.500: system.cpu.dtb: Translated 0x7fffffffe4a0 -> 0x2e24a0.
3420.404.500: system.cpu.dtb: Translating vaddr 0x7fffffffe478 at pc 0x401f3a (mode == Read).
3420.404.500: system.cpu.dtb: In protected mode.
3420.404.500: system.cpu.dtb: Paging enabled.
3420.404.500: system.cpu.dtb: Entry found with paddr 0x2e2000, doing protection checks.
3420.404.500: system.cpu.dtb: Translated 0x7fffffffe478 -> 0x2e2478.
3420.405.000: system.cpu.dtb: Translating vaddr 0x7fffffffe478 at pc 0x401f3a (mode == Read).
3420.405.000: system.cpu.dtb: In protected mode.
3420.405.000: system.cpu.dtb: Paging enabled.
3420.405.000: system.cpu.dtb: Entry found with paddr 0x2e2000, doing protection checks.
3420.405.000: system.cpu.dtb: Translated 0x7fffffffe478 -> 0x2e2478.
3420.405.500: system.cpu.itb: Translating vaddr 0x401e80 at pc 0x401f3f (mode == Read).
3420.405.500: system.cpu.itb: In protected mode.
3420.405.500: system.cpu.itb: Paging enabled.
3420.405.500: system.cpu.itb: Entry found with paddr 0, doing protection checks.
3420.405.500: system.cpu.itb: Translated 0x401e80 -> 0xe80.
3420.406.000: system.cpu.dtb: Translating vaddr 0x7fffffffe46c at pc 0x401f3f (mode == Write).
3420.406.000: system.cpu.dtb: In protected mode.
3420.406.000: system.cpu.dtb: Paging enabled.
3420.406.000: system.cpu.dtb: Entry found with paddr 0x2e2000, doing protection checks.
3420.406.000: system.cpu.dtb: Translated 0x7fffffffe46c -> 0x2e246c.
3420.406.000: system.cpu.dtb: Translating vaddr 0x7fffffffe438 at pc 0x401f3f (mode == Write).
3420.406.000: system.cpu.dtb: In protected mode.
3420.406.000: system.cpu.dtb: Paging enabled.
3420.406.000: system.cpu.dtb: Entry found with paddr 0x2e2000, doing protection checks.
3420.406.000: system.cpu.dtb: Translated 0x7fffffffe438 -> 0x2e2438.
3420.406.000: system.cpu.dtb: Translating vaddr 0x7fffffffe438 at pc 0x401f3f (mode == Read).
3420.406.000: system.cpu.dtb: In protected mode.
3420.406.000: system.cpu.dtb: Paging enabled.
3420.406.000: system.cpu.dtb: Entry found with paddr 0x2e2000, doing protection checks.
3420.406.000: system.cpu.dtb: Translated 0x7fffffffe438 -> 0x2e2438.
3420.406.000: system.cpu.dtb: Translating vaddr 0x7fffffffe478 at pc 0x401f3f (mode == Read).
3420.406.000: system.cpu.dtb: In protected mode.
3420.406.000: system.cpu.dtb: Paging enabled.
3420.406.000: system.cpu.dtb: Entry found with paddr 0x2e2000, doing protection checks.
3420.406.000: system.cpu.dtb: Translated 0x7fffffffe478 -> 0x2e2478.
3420.406.500: system.cpu.dtb: Translating vaddr 0x7fffffffe478 at pc 0x401f3f (mode == Read).
3420.406.500: system.cpu.dtb: In protected mode.
3420.406.500: system.cpu.dtb: Paging enabled.
3420.406.500: system.cpu.dtb: Entry found with paddr 0x2e2000, doing protection checks.
3420.406.500: system.cpu.dtb: Translated 0x7fffffffe478 -> 0x2e2478.
3420.407.000: system.cpu.itb: Translating vaddr 0x401ec0 at pc 0x401f46 (mode == Read).
3420.407.000: system.cpu.itb: In protected mode.
3420.407.000: system.cpu.itb: Paging enabled.
3420.407.000: system.cpu.itb: Entry found with paddr 0, doing protection checks.
3420.407.000: system.cpu.itb: Translated 0x401ec0 -> 0xec0.
3420.407.000: system.cpu.dtb: Translating vaddr 0x7fffffffe4d8 at pc 0x401f46 (mode == Read).
3420.407.000: system.cpu.dtb: In protected mode.
3420.407.000: system.cpu.dtb: Paging enabled.
3420.407.000: system.cpu.dtb: Entry found with paddr 0x2e2000, doing protection checks.
3420.407.000: system.cpu.dtb: Translated 0x7fffffffe4d8 -> 0x2e24d8.
3420.407.500: system.cpu.dtb: Translating vaddr 0x4df0f0 at pc 0x401f5b (mode == Read).
3420.407.500: system.cpu.dtb: In protected mode.
3420.407.500: system.cpu.dtb: Paging enabled.
3420.407.500: system.cpu.dtb: Entry found with paddr 0xb5000, doing protection checks.
3420.407.500: system.cpu.dtb: Translated 0x4df0f0 -> 0xb50f0.
3420.408.000: system.cpu.dtb: Translating vaddr 0x7fffffffe478 at pc 0x401f5d (mode == Write).
3420.408.000: system.cpu.dtb: In protected mode.
3420.408.000: system.cpu.dtb: Paging enabled.
3420.408.000: system.cpu.dtb: Entry found with paddr 0x2e2000, doing protection checks.
3420.408.000: system.cpu.dtb: Translated 0x7fffffffe478 -> 0x2e2478.
3420.408.500: system.cpu.itb: Translating vaddr 0x401c80 at pc 0x401f5d (mode == Read).
3420.408.500: system.cpu.itb: In protected mode.
3420.408.500: system.cpu.itb: Paging enabled.
3420.408.500: system.cpu.itb: Entry found with paddr 0, doing protection checks.
3420.408.500: system.cpu.itb: Translated 0x401c80 -> 0xc80.
3420.408.500: system.cpu.dtb: Translating vaddr 0x7fffffffe474 at pc 0x401f5d (mode == Write).
3420.408.500: system.cpu.dtb: In protected mode.
3420.408.500: system.cpu.dtb: Paging enabled.
3420.408.500: system.cpu.dtb: Entry found with paddr 0x2e2000, doing protection checks.
3420.408.500: system.cpu.dtb: Translated 0x7fffffffe474 -> 0x2e2474.
3420.409.000: system.cpu.dtb: Translating vaddr 0x7fffffffe4d8 at pc 0x401f5d (mode == Write).
3420.409.000: system.cpu.dtb: In protected mode.
3420.409.000: system.cpu.dtb: Paging enabled.
3420.409.000: system.cpu.dtb: Entry found with paddr 0x2e2000, doing protection checks.
3420.409.000: system.cpu.dtb: Translated 0x7fffffffe4d8 -> 0x2e24d8.
3420.409.500: system.cpu.itb: Translating vaddr 0x401f80 at pc 0x401f5d (mode == Read).
3420.409.500: system.cpu.itb: In protected mode.
3420.409.500: system.cpu.itb: Paging enabled.
3420.409.500: system.cpu.itb: Entry found with paddr 0, doing protection checks.
3420.409.500: system.cpu.itb: Translated 0x401f80 -> 0xf80.
3420.410.500: system.cpu.itb: Translating vaddr 0x401d40 at pc 0x401f5d (mode == Read).
3420.410.500: system.cpu.itb: In protected mode.
3420.410.500: system.cpu.itb: Paging enabled.
3420.410.500: system.cpu.itb: Entry found with paddr 0, doing protection checks.
3420.410.500: system.cpu.itb: Translated 0x401d40 -> 0xd40.
3420.411.500: system.cpu.itb: Translating vaddr 0x401e80 at pc 0x401f5d (mode == Read).
3420.411.500: system.cpu.itb: In protected mode.
3420.411.500: system.cpu.itb: Paging enabled.
3420.411.500: system.cpu.itb: Entry found with paddr 0, doing protection checks.
3420.411.500: system.cpu.itb: Translated 0x401e80 -> 0xe80.
3420.412.500: system.cpu.itb: Translating vaddr 0x401ec0 at pc 0x401cae (mode == Read).
3420.412.500: system.cpu.itb: In protected mode.
3420.412.500: system.cpu.itb: Paging enabled.
3420.412.500: system.cpu.itb: Entry found with paddr 0, doing protection checks.
3420.412.500: system.cpu.itb: Translated 0x401ec0 -> 0xec0.
3420.413.500: system.cpu.itb: Translating vaddr 0x401d40 at pc 0x401cae (mode == Read).
3420.413.500: system.cpu.itb: In protected mode.
3420.413.500: system.cpu.itb: Paging enabled.
3420.413.500: system.cpu.itb: Entry found with paddr 0, doing protection checks.
3420.413.500: system.cpu.itb: Translated 0x401d40 -> 0xd40.
3420.414.000: system.cpu.dtb: Translating vaddr 0x7fffffffe478 at pc 0x401cae (mode == Read).
3420.414.000: system.cpu.dtb: In protected mode.
3420.414.000: system.cpu.dtb: Paging enabled.
3420.414.000: system.cpu.dtb: Entry found with paddr 0x2e2000, doing protection checks.
3420.414.000: system.cpu.dtb: Translated 0x7fffffffe478 -> 0x2e2478.
3420.415.000: system.cpu.itb: Translating vaddr 0x401d80 at pc 0x401cae (mode == Read).
3420.415.000: system.cpu.itb: In protected mode.
3420.415.000: system.cpu.itb: Paging enabled.
3420.415.000: system.cpu.itb: Entry found with paddr 0, doing protection checks.
3420.415.000: system.cpu.itb: Translated 0x401d80 -> 0xd80.
3420.416.000: system.cpu.itb: Translating vaddr 0x401e80 at pc 0x401cae (mode == Read).
3420.416.000: system.cpu.itb: In protected mode.
3420.416.000: system.cpu.itb: Paging enabled.
3420.416.000: system.cpu.itb: Entry found with paddr 0, doing protection checks.
3420.416.000: system.cpu.itb: Translated 0x401e80 -> 0xe80.
========== Exiting @ tick 3420416000 because workbegin
0x2b
========== Exiting @ tick 3424057000 because workbegin
0x2a
3424.064.500: system.cpu.itb: Translating vaddr 0x401d40 at pc 0x401f01 (mode == Read).
3424.064.500: system.cpu.itb: In protected mode.
3424.064.500: system.cpu.itb: Paging enabled.
3424.064.500: system.cpu.itb: Entry found with paddr 0, doing protection checks.
3424.064.500: system.cpu.itb: Translated 0x401d40 -> 0xd40.
3424.065.000: system.cpu.dtb: Translating vaddr 0x7fffffffe4a8 at pc 0x401f01 (mode == Read).
3424.065.000: system.cpu.dtb: In protected mode.
3424.065.000: system.cpu.dtb: Paging enabled.
3424.065.000: system.cpu.dtb: Entry found with paddr 0x2e2000, doing protection checks.
3424.065.000: system.cpu.dtb: Translated 0x7fffffffe4a8 -> 0x2e24a8.
3424.065.000: system.cpu.dtb: Translating vaddr 0x7fffffffe488 at pc 0x401f01 (mode == Read).
3424.065.000: system.cpu.dtb: In protected mode.
3424.065.000: system.cpu.dtb: Paging enabled.
3424.065.000: system.cpu.dtb: Entry found with paddr 0x2e2000, doing protection checks.
3424.065.000: system.cpu.dtb: Translated 0x7fffffffe488 -> 0x2e2488.
3424.065.500: system.cpu.itb: Translating vaddr 0x401e80 at pc 0x401f01 (mode == Read).
3424.065.500: system.cpu.itb: In protected mode.
3424.065.500: system.cpu.itb: Paging enabled.
3424.065.500: system.cpu.itb: Entry found with paddr 0, doing protection checks.
3424.065.500: system.cpu.itb: Translated 0x401e80 -> 0xe80.
3424.066.500: system.cpu.itb: Translating vaddr 0x401ec0 at pc 0x401f06 (mode == Read).
3424.066.500: system.cpu.itb: In protected mode.
3424.066.500: system.cpu.itb: Paging enabled.
3424.066.500: system.cpu.itb: Entry found with paddr 0, doing protection checks.
3424.066.500: system.cpu.itb: Translated 0x401ec0 -> 0xec0.
3424.066.500: system.cpu.dtb: Translating vaddr 0x7fffffffe46c at pc 0x401f06 (mode == Write).
3424.066.500: system.cpu.dtb: In protected mode.
3424.066.500: system.cpu.dtb: Paging enabled.
3424.066.500: system.cpu.dtb: Entry found with paddr 0x2e2000, doing protection checks.
3424.066.500: system.cpu.dtb: Translated 0x7fffffffe46c -> 0x2e246c.
3424.067.000: system.cpu.dtb: Translating vaddr 0x4e8880 at pc 0x401f06 (mode == Read).
3424.067.000: system.cpu.dtb: In protected mode.
3424.067.000: system.cpu.dtb: Paging enabled.
3424.067.000: system.cpu.dtb: Handling a TLB miss for address 0x4e8880 at pc 0x401f06 (mode == Read).
3424.067.000: system.cpu.dtb: Mapping 0x4e8000 to 0xbe000
3424.067.000: system.cpu.dtb: Evicting address 0x5af000.
3424.067.000: system.cpu.dtb: Miss was serviced.
3424.067.000: system.cpu.dtb: Entry found with paddr 0xbe000, doing protection checks.
3424.067.000: system.cpu.dtb: Translated 0x4e8880 -> 0xbe880.
3424.082.000: system.cpu.dtb: Translating vaddr 0x7fffffffe46c at pc 0x401f23 (mode == Write).
3424.082.000: system.cpu.dtb: In protected mode.
3424.082.000: system.cpu.dtb: Paging enabled.
3424.082.000: system.cpu.dtb: Entry found with paddr 0x2e2000, doing protection checks.
[...]
4329.143.000: system.cpu.itb: Paging enabled.
4329.143.000: system.cpu.itb: Entry found with paddr 0, doing protection checks.
4329.143.000: system.cpu.itb: Translated 0x401ec0 -> 0xec0.
4329.143.000: system.cpu.dtb: Translating vaddr 0x7fffffffe46c at pc 0x401f06 (mode == Write).
4329.143.000: system.cpu.dtb: In protected mode.
4329.143.000: system.cpu.dtb: Paging enabled.
4329.143.000: system.cpu.dtb: Entry found with paddr 0x2e2000, doing protection checks.
4329.143.000: system.cpu.dtb: Translated 0x7fffffffe46c -> 0x2e246c.
4329.143.500: system.cpu.dtb: Translating vaddr 0x5e1880 at pc 0x401f06 (mode == Read).
4329.143.500: system.cpu.dtb: In protected mode.
4329.143.500: system.cpu.dtb: Paging enabled.
4329.143.500: system.cpu.dtb: Handling a TLB miss for address 0x5e1880 at pc 0x401f06 (mode == Read).
4329.143.500: system.cpu.dtb: Mapping 0x5e1000 to 0x1b7000
4329.143.500: system.cpu.dtb: Evicting address 0x5a6000.
4329.143.500: system.cpu.dtb: Miss was serviced.
4329.143.500: system.cpu.dtb: Entry found with paddr 0x1b7000, doing protection checks.
4329.143.500: system.cpu.dtb: Translated 0x5e1880 -> 0x1b7880.
4329.158.500: system.cpu.dtb: Translating vaddr 0x7fffffffe46c at pc 0x401f23 (mode == Write).
4329.158.500: system.cpu.dtb: In protected mode.
4329.158.500: system.cpu.dtb: Paging enabled.
4329.158.500: system.cpu.dtb: Entry found with paddr 0x2e2000, doing protection checks.
4329.158.500: system.cpu.dtb: Translated 0x7fffffffe46c -> 0x2e246c.
4329.159.000: system.cpu.dtb: Translating vaddr 0x7fffffffe4a0 at pc 0x401f23 (mode == Write).
4329.159.000: system.cpu.dtb: In protected mode.
4329.159.000: system.cpu.dtb: Paging enabled.
4329.159.000: system.cpu.dtb: Entry found with paddr 0x2e2000, doing protection checks.
4329.159.000: system.cpu.dtb: Translated 0x7fffffffe4a0 -> 0x2e24a0.
4329.164.500: system.cpu.itb: Translating vaddr 0x401d40 at pc 0x401f3a (mode == Read).
4329.164.500: system.cpu.itb: In protected mode.
4329.164.500: system.cpu.itb: Paging enabled.
4329.164.500: system.cpu.itb: Entry found with paddr 0, doing protection checks.
4329.164.500: system.cpu.itb: Translated 0x401d40 -> 0xd40.
4329.166.000: system.cpu.itb: Translating vaddr 0x401d80 at pc 0x401f3a (mode == Read).
4329.166.000: system.cpu.itb: In protected mode.
4329.166.000: system.cpu.itb: Paging enabled.
4329.166.000: system.cpu.itb: Entry found with paddr 0, doing protection checks.
4329.166.000: system.cpu.itb: Translated 0x401d80 -> 0xd80.
4329.166.000: system.cpu.dtb: Translating vaddr 0x7fffffffe4a0 at pc 0x401f3a (mode == Read).
4329.166.000: system.cpu.dtb: In protected mode.
4329.166.000: system.cpu.dtb: Paging enabled.
4329.166.000: system.cpu.dtb: Entry found with paddr 0x2e2000, doing protection checks.
4329.166.000: system.cpu.dtb: Translated 0x7fffffffe4a0 -> 0x2e24a0.
4329.166.000: system.cpu.dtb: Translating vaddr 0x7fffffffe478 at pc 0x401f3a (mode == Read).
4329.166.000: system.cpu.dtb: In protected mode.
4329.166.000: system.cpu.dtb: Paging enabled.
4329.166.000: system.cpu.dtb: Entry found with paddr 0x2e2000, doing protection checks.
4329.166.000: system.cpu.dtb: Translated 0x7fffffffe478 -> 0x2e2478.
4329.166.500: system.cpu.dtb: Translating vaddr 0x7fffffffe478 at pc 0x401f3a (mode == Read).
4329.166.500: system.cpu.dtb: In protected mode.
4329.166.500: system.cpu.dtb: Paging enabled.
4329.166.500: system.cpu.dtb: Entry found with paddr 0x2e2000, doing protection checks.
4329.166.500: system.cpu.dtb: Translated 0x7fffffffe478 -> 0x2e2478.
4329.167.000: system.cpu.itb: Translating vaddr 0x401e80 at pc 0x401f3f (mode == Read).
4329.167.000: system.cpu.itb: In protected mode.
4329.167.000: system.cpu.itb: Paging enabled.
4329.167.000: system.cpu.itb: Entry found with paddr 0, doing protection checks.
4329.167.000: system.cpu.itb: Translated 0x401e80 -> 0xe80.
4329.167.500: system.cpu.dtb: Translating vaddr 0x7fffffffe46c at pc 0x401f3f (mode == Write).
4329.167.500: system.cpu.dtb: In protected mode.
4329.167.500: system.cpu.dtb: Paging enabled.
4329.167.500: system.cpu.dtb: Entry found with paddr 0x2e2000, doing protection checks.
4329.167.500: system.cpu.dtb: Translated 0x7fffffffe46c -> 0x2e246c.
4329.167.500: system.cpu.dtb: Translating vaddr 0x7fffffffe438 at pc 0x401f3f (mode == Write).
4329.167.500: system.cpu.dtb: In protected mode.
4329.167.500: system.cpu.dtb: Paging enabled.
4329.167.500: system.cpu.dtb: Entry found with paddr 0x2e2000, doing protection checks.
4329.167.500: system.cpu.dtb: Translated 0x7fffffffe438 -> 0x2e2438.
4329.167.500: system.cpu.dtb: Translating vaddr 0x7fffffffe438 at pc 0x401f3f (mode == Read).
4329.167.500: system.cpu.dtb: In protected mode.
4329.167.500: system.cpu.dtb: Paging enabled.
4329.167.500: system.cpu.dtb: Entry found with paddr 0x2e2000, doing protection checks.
4329.167.500: system.cpu.dtb: Translated 0x7fffffffe438 -> 0x2e2438.
4329.167.500: system.cpu.dtb: Translating vaddr 0x7fffffffe478 at pc 0x401f3f (mode == Read).
4329.167.500: system.cpu.dtb: In protected mode.
4329.167.500: system.cpu.dtb: Paging enabled.
4329.167.500: system.cpu.dtb: Entry found with paddr 0x2e2000, doing protection checks.
4329.167.500: system.cpu.dtb: Translated 0x7fffffffe478 -> 0x2e2478.
4329.168.500: system.cpu.itb: Translating vaddr 0x401ec0 at pc 0x401f46 (mode == Read).
4329.168.500: system.cpu.itb: In protected mode.
4329.168.500: system.cpu.itb: Paging enabled.
4329.168.500: system.cpu.itb: Entry found with paddr 0, doing protection checks.
4329.168.500: system.cpu.itb: Translated 0x401ec0 -> 0xec0.
4329.168.500: system.cpu.dtb: Translating vaddr 0x7fffffffeca8 at pc 0x401f46 (mode == Read).
4329.168.500: system.cpu.dtb: In protected mode.
4329.168.500: system.cpu.dtb: Paging enabled.
4329.168.500: system.cpu.dtb: Entry found with paddr 0x2e2000, doing protection checks.
4329.168.500: system.cpu.dtb: Translated 0x7fffffffeca8 -> 0x2e2ca8.
4329.169.000: system.cpu.dtb: Translating vaddr 0x4df0f0 at pc 0x401f5b (mode == Read).
4329.169.000: system.cpu.dtb: In protected mode.
4329.169.000: system.cpu.dtb: Paging enabled.
4329.169.000: system.cpu.dtb: Entry found with paddr 0xb5000, doing protection checks.
4329.169.000: system.cpu.dtb: Translated 0x4df0f0 -> 0xb50f0.
4329.169.500: system.cpu.dtb: Translating vaddr 0x7fffffffe478 at pc 0x401f5d (mode == Write).
4329.169.500: system.cpu.dtb: In protected mode.
4329.169.500: system.cpu.dtb: Paging enabled.
4329.169.500: system.cpu.dtb: Entry found with paddr 0x2e2000, doing protection checks.
4329.169.500: system.cpu.dtb: Translated 0x7fffffffe478 -> 0x2e2478.
4329.170.000: system.cpu.itb: Translating vaddr 0x401c80 at pc 0x401f5d (mode == Read).
4329.170.000: system.cpu.itb: In protected mode.
4329.170.000: system.cpu.itb: Paging enabled.
4329.170.000: system.cpu.itb: Entry found with paddr 0, doing protection checks.
4329.170.000: system.cpu.itb: Translated 0x401c80 -> 0xc80.
4329.170.000: system.cpu.dtb: Translating vaddr 0x7fffffffe478 at pc 0x401f5d (mode == Read).
4329.170.000: system.cpu.dtb: In protected mode.
4329.170.000: system.cpu.dtb: Paging enabled.
4329.170.000: system.cpu.dtb: Entry found with paddr 0x2e2000, doing protection checks.
4329.170.000: system.cpu.dtb: Translated 0x7fffffffe478 -> 0x2e2478.
4329.170.000: system.cpu.dtb: Translating vaddr 0x7fffffffe474 at pc 0x401f5d (mode == Write).
4329.170.000: system.cpu.dtb: In protected mode.
4329.170.000: system.cpu.dtb: Paging enabled.
4329.170.000: system.cpu.dtb: Entry found with paddr 0x2e2000, doing protection checks.
4329.170.000: system.cpu.dtb: Translated 0x7fffffffe474 -> 0x2e2474.
4329.170.000: system.cpu.dtb: Translating vaddr 0x7fffffffe47c at pc 0x401f5d (mode == Write).
4329.170.000: system.cpu.dtb: In protected mode.
4329.170.000: system.cpu.dtb: Paging enabled.
4329.170.000: system.cpu.dtb: Entry found with paddr 0x2e2000, doing protection checks.
4329.170.000: system.cpu.dtb: Translated 0x7fffffffe47c -> 0x2e247c.
4329.170.500: system.cpu.dtb: Translating vaddr 0x7fffffffeca8 at pc 0x401f5d (mode == Write).
4329.170.500: system.cpu.dtb: In protected mode.
4329.170.500: system.cpu.dtb: Paging enabled.
4329.170.500: system.cpu.dtb: Entry found with paddr 0x2e2000, doing protection checks.
4329.170.500: system.cpu.dtb: Translated 0x7fffffffeca8 -> 0x2e2ca8.
4329.170.500: system.cpu.dtb: Translating vaddr 0x7fffffffe474 at pc 0x401f5d (mode == Read).
4329.170.500: system.cpu.dtb: In protected mode.
4329.170.500: system.cpu.dtb: Paging enabled.
4329.170.500: system.cpu.dtb: Entry found with paddr 0x2e2000, doing protection checks.
4329.170.500: system.cpu.dtb: Translated 0x7fffffffe474 -> 0x2e2474.
4329.170.500: system.cpu.dtb: Translating vaddr 0x7fffffffe474 at pc 0x401f5d (mode == Read).
4329.170.500: system.cpu.dtb: In protected mode.
4329.170.500: system.cpu.dtb: Paging enabled.
4329.170.500: system.cpu.dtb: Entry found with paddr 0x2e2000, doing protection checks.
4329.170.500: system.cpu.dtb: Translated 0x7fffffffe474 -> 0x2e2474.
4329.170.500: system.cpu.dtb: Translating vaddr 0x7fffffffe47c at pc 0x401f5d (mode == Read).
4329.170.500: system.cpu.dtb: In protected mode.
4329.170.500: system.cpu.dtb: Paging enabled.
4329.170.500: system.cpu.dtb: Entry found with paddr 0x2e2000, doing protection checks.
4329.170.500: system.cpu.dtb: Translated 0x7fffffffe47c -> 0x2e247c.
4329.171.000: system.cpu.itb: Translating vaddr 0x401ec0 at pc 0x401f65 (mode == Read).
4329.171.000: system.cpu.itb: In protected mode.
4329.171.000: system.cpu.itb: Paging enabled.
4329.171.000: system.cpu.itb: Entry found with paddr 0, doing protection checks.
4329.171.000: system.cpu.itb: Translated 0x401ec0 -> 0xec0.
4329.171.000: system.cpu.dtb: Translating vaddr 0x7fffffffe474 at pc 0x401f65 (mode == Read).
4329.171.000: system.cpu.dtb: In protected mode.
4329.171.000: system.cpu.dtb: Paging enabled.
4329.171.000: system.cpu.dtb: Entry found with paddr 0x2e2000, doing protection checks.
4329.171.000: system.cpu.dtb: Translated 0x7fffffffe474 -> 0x2e2474.
4329.173.000: system.cpu.itb: Translating vaddr 0x401f80 at pc 0x401cae (mode == Read).
4329.173.000: system.cpu.itb: In protected mode.
4329.173.000: system.cpu.itb: Paging enabled.
4329.173.000: system.cpu.itb: Entry found with paddr 0, doing protection checks.
4329.173.000: system.cpu.itb: Translated 0x401f80 -> 0xf80.
4329.174.500: system.cpu.itb: Translating vaddr 0x401fc0 at pc 0x401cae (mode == Read).
4329.174.500: system.cpu.itb: In protected mode.
4329.174.500: system.cpu.itb: Paging enabled.
4329.174.500: system.cpu.itb: Entry found with paddr 0, doing protection checks.
4329.174.500: system.cpu.itb: Translated 0x401fc0 -> 0xfc0.
4329.176.000: system.cpu.itb: Translating vaddr 0x402000 at pc 0x401cae (mode == Read).
4329.176.000: system.cpu.itb: In protected mode.
4329.176.000: system.cpu.itb: Paging enabled.
4329.176.000: system.cpu.itb: Entry found with paddr 0x1000, doing protection checks.
4329.176.000: system.cpu.itb: Translated 0x402000 -> 0x1000.
========== Exiting @ tick 4329177000 because workbegin
0x2b
array2[0 * STEP_SIZE] @ 0x4e2880
array2[1 * STEP_SIZE] @ 0x4e3880
array2[2 * STEP_SIZE] @ 0x4e4880
array2[3 * STEP_SIZE] @ 0x4e5880
array2[4 * STEP_SIZE] @ 0x4e6880
array2[5 * STEP_SIZE] @ 0x4e7880
array2[6 * STEP_SIZE] @ 0x4e8880
array2[7 * STEP_SIZE] @ 0x4e9880
array2[8 * STEP_SIZE] @ 0x4ea880
array2[9 * STEP_SIZE] @ 0x4eb880
array2[10 * STEP_SIZE] @ 0x4ec880
array2[11 * STEP_SIZE] @ 0x4ed880
array2[12 * STEP_SIZE] @ 0x4ee880
array2[13 * STEP_SIZE] @ 0x4ef880
array2[14 * STEP_SIZE] @ 0x4f0880
array2[15 * STEP_SIZE] @ 0x4f1880
array2[16 * STEP_SIZE] @ 0x4f2880
array2[17 * STEP_SIZE] @ 0x4f3880
array2[18 * STEP_SIZE] @ 0x4f4880
array2[19 * STEP_SIZE] @ 0x4f5880
array2[20 * STEP_SIZE] @ 0x4f6880
array2[21 * STEP_SIZE] @ 0x4f7880
array2[22 * STEP_SIZE] @ 0x4f8880
array2[23 * STEP_SIZE] @ 0x4f9880
array2[24 * STEP_SIZE] @ 0x4fa880
array2[25 * STEP_SIZE] @ 0x4fb880
array2[26 * STEP_SIZE] @ 0x4fc880
array2[27 * STEP_SIZE] @ 0x4fd880
array2[28 * STEP_SIZE] @ 0x4fe880
array2[29 * STEP_SIZE] @ 0x4ff880
array2[30 * STEP_SIZE] @ 0x500880
array2[31 * STEP_SIZE] @ 0x501880
array2[32 * STEP_SIZE] @ 0x502880
array2[33 * STEP_SIZE] @ 0x503880
array2[34 * STEP_SIZE] @ 0x504880
array2[35 * STEP_SIZE] @ 0x505880
array2[36 * STEP_SIZE] @ 0x506880
array2[37 * STEP_SIZE] @ 0x507880
array2[38 * STEP_SIZE] @ 0x508880
array2[39 * STEP_SIZE] @ 0x509880
array2[40 * STEP_SIZE] @ 0x50a880
array2[41 * STEP_SIZE] @ 0x50b880
array2[42 * STEP_SIZE] @ 0x50c880
array2[43 * STEP_SIZE] @ 0x50d880
array2[44 * STEP_SIZE] @ 0x50e880
array2[45 * STEP_SIZE] @ 0x50f880
array2[46 * STEP_SIZE] @ 0x510880
array2[47 * STEP_SIZE] @ 0x511880
array2[48 * STEP_SIZE] @ 0x512880
array2[49 * STEP_SIZE] @ 0x513880
array2[50 * STEP_SIZE] @ 0x514880
array2[51 * STEP_SIZE] @ 0x515880
array2[52 * STEP_SIZE] @ 0x516880
array2[53 * STEP_SIZE] @ 0x517880
array2[54 * STEP_SIZE] @ 0x518880
array2[55 * STEP_SIZE] @ 0x519880
array2[56 * STEP_SIZE] @ 0x51a880
array2[57 * STEP_SIZE] @ 0x51b880
array2[58 * STEP_SIZE] @ 0x51c880
array2[59 * STEP_SIZE] @ 0x51d880
array2[60 * STEP_SIZE] @ 0x51e880
array2[61 * STEP_SIZE] @ 0x51f880
array2[62 * STEP_SIZE] @ 0x520880
array2[63 * STEP_SIZE] @ 0x521880
array2[64 * STEP_SIZE] @ 0x522880
array2[65 * STEP_SIZE] @ 0x523880
array2[66 * STEP_SIZE] @ 0x524880
array2[67 * STEP_SIZE] @ 0x525880
array2[68 * STEP_SIZE] @ 0x526880
array2[69 * STEP_SIZE] @ 0x527880
array2[70 * STEP_SIZE] @ 0x528880
array2[71 * STEP_SIZE] @ 0x529880
array2[72 * STEP_SIZE] @ 0x52a880
array2[73 * STEP_SIZE] @ 0x52b880
array2[74 * STEP_SIZE] @ 0x52c880
array2[75 * STEP_SIZE] @ 0x52d880
array2[76 * STEP_SIZE] @ 0x52e880
array2[77 * STEP_SIZE] @ 0x52f880
array2[78 * STEP_SIZE] @ 0x530880
array2[79 * STEP_SIZE] @ 0x531880
array2[80 * STEP_SIZE] @ 0x532880
array2[81 * STEP_SIZE] @ 0x533880
array2[82 * STEP_SIZE] @ 0x534880
array2[83 * STEP_SIZE] @ 0x535880
array2[84 * STEP_SIZE] @ 0x536880
array2[85 * STEP_SIZE] @ 0x537880
array2[86 * STEP_SIZE] @ 0x538880
array2[87 * STEP_SIZE] @ 0x539880
array2[88 * STEP_SIZE] @ 0x53a880
array2[89 * STEP_SIZE] @ 0x53b880
array2[90 * STEP_SIZE] @ 0x53c880
array2[91 * STEP_SIZE] @ 0x53d880
array2[92 * STEP_SIZE] @ 0x53e880
array2[93 * STEP_SIZE] @ 0x53f880
array2[94 * STEP_SIZE] @ 0x540880
array2[95 * STEP_SIZE] @ 0x541880
array2[96 * STEP_SIZE] @ 0x542880
array2[97 * STEP_SIZE] @ 0x543880
array2[98 * STEP_SIZE] @ 0x544880
array2[99 * STEP_SIZE] @ 0x545880
array2[100 * STEP_SIZE] @ 0x546880
array2[101 * STEP_SIZE] @ 0x547880
array2[102 * STEP_SIZE] @ 0x548880
array2[103 * STEP_SIZE] @ 0x549880
array2[104 * STEP_SIZE] @ 0x54a880
array2[105 * STEP_SIZE] @ 0x54b880
array2[106 * STEP_SIZE] @ 0x54c880
array2[107 * STEP_SIZE] @ 0x54d880
array2[108 * STEP_SIZE] @ 0x54e880
array2[109 * STEP_SIZE] @ 0x54f880
array2[110 * STEP_SIZE] @ 0x550880
array2[111 * STEP_SIZE] @ 0x551880
array2[112 * STEP_SIZE] @ 0x552880
array2[113 * STEP_SIZE] @ 0x553880
array2[114 * STEP_SIZE] @ 0x554880
array2[115 * STEP_SIZE] @ 0x555880
array2[116 * STEP_SIZE] @ 0x556880
array2[117 * STEP_SIZE] @ 0x557880
array2[118 * STEP_SIZE] @ 0x558880
array2[119 * STEP_SIZE] @ 0x559880
array2[120 * STEP_SIZE] @ 0x55a880
array2[121 * STEP_SIZE] @ 0x55b880
array2[122 * STEP_SIZE] @ 0x55c880
array2[123 * STEP_SIZE] @ 0x55d880
array2[124 * STEP_SIZE] @ 0x55e880
array2[125 * STEP_SIZE] @ 0x55f880
array2[126 * STEP_SIZE] @ 0x560880
array2[127 * STEP_SIZE] @ 0x561880
array2[128 * STEP_SIZE] @ 0x562880
array2[129 * STEP_SIZE] @ 0x563880
array2[130 * STEP_SIZE] @ 0x564880
array2[131 * STEP_SIZE] @ 0x565880
array2[132 * STEP_SIZE] @ 0x566880
array2[133 * STEP_SIZE] @ 0x567880
array2[134 * STEP_SIZE] @ 0x568880
array2[135 * STEP_SIZE] @ 0x569880
array2[136 * STEP_SIZE] @ 0x56a880
array2[137 * STEP_SIZE] @ 0x56b880
array2[138 * STEP_SIZE] @ 0x56c880
array2[139 * STEP_SIZE] @ 0x56d880
array2[140 * STEP_SIZE] @ 0x56e880
array2[141 * STEP_SIZE] @ 0x56f880
array2[142 * STEP_SIZE] @ 0x570880
array2[143 * STEP_SIZE] @ 0x571880
array2[144 * STEP_SIZE] @ 0x572880
array2[145 * STEP_SIZE] @ 0x573880
array2[146 * STEP_SIZE] @ 0x574880
array2[147 * STEP_SIZE] @ 0x575880
array2[148 * STEP_SIZE] @ 0x576880
array2[149 * STEP_SIZE] @ 0x577880
array2[150 * STEP_SIZE] @ 0x578880
array2[151 * STEP_SIZE] @ 0x579880
array2[152 * STEP_SIZE] @ 0x57a880
array2[153 * STEP_SIZE] @ 0x57b880
array2[154 * STEP_SIZE] @ 0x57c880
array2[155 * STEP_SIZE] @ 0x57d880
array2[156 * STEP_SIZE] @ 0x57e880
array2[157 * STEP_SIZE] @ 0x57f880
array2[158 * STEP_SIZE] @ 0x580880
array2[159 * STEP_SIZE] @ 0x581880
array2[160 * STEP_SIZE] @ 0x582880
array2[161 * STEP_SIZE] @ 0x583880
array2[162 * STEP_SIZE] @ 0x584880
array2[163 * STEP_SIZE] @ 0x585880
array2[164 * STEP_SIZE] @ 0x586880
array2[165 * STEP_SIZE] @ 0x587880
array2[166 * STEP_SIZE] @ 0x588880
array2[167 * STEP_SIZE] @ 0x589880
array2[168 * STEP_SIZE] @ 0x58a880
array2[169 * STEP_SIZE] @ 0x58b880
array2[170 * STEP_SIZE] @ 0x58c880
array2[171 * STEP_SIZE] @ 0x58d880
array2[172 * STEP_SIZE] @ 0x58e880
array2[173 * STEP_SIZE] @ 0x58f880
array2[174 * STEP_SIZE] @ 0x590880
array2[175 * STEP_SIZE] @ 0x591880
array2[176 * STEP_SIZE] @ 0x592880
array2[177 * STEP_SIZE] @ 0x593880
array2[178 * STEP_SIZE] @ 0x594880
array2[179 * STEP_SIZE] @ 0x595880
array2[180 * STEP_SIZE] @ 0x596880
array2[181 * STEP_SIZE] @ 0x597880
array2[182 * STEP_SIZE] @ 0x598880
array2[183 * STEP_SIZE] @ 0x599880
array2[184 * STEP_SIZE] @ 0x59a880
array2[185 * STEP_SIZE] @ 0x59b880
array2[186 * STEP_SIZE] @ 0x59c880
array2[187 * STEP_SIZE] @ 0x59d880
array2[188 * STEP_SIZE] @ 0x59e880
array2[189 * STEP_SIZE] @ 0x59f880
array2[190 * STEP_SIZE] @ 0x5a0880
array2[191 * STEP_SIZE] @ 0x5a1880
array2[192 * STEP_SIZE] @ 0x5a2880
array2[193 * STEP_SIZE] @ 0x5a3880
array2[194 * STEP_SIZE] @ 0x5a4880
array2[195 * STEP_SIZE] @ 0x5a5880
array2[196 * STEP_SIZE] @ 0x5a6880
array2[197 * STEP_SIZE] @ 0x5a7880
array2[198 * STEP_SIZE] @ 0x5a8880
array2[199 * STEP_SIZE] @ 0x5a9880
array2[200 * STEP_SIZE] @ 0x5aa880
array2[201 * STEP_SIZE] @ 0x5ab880
array2[202 * STEP_SIZE] @ 0x5ac880
array2[203 * STEP_SIZE] @ 0x5ad880
array2[204 * STEP_SIZE] @ 0x5ae880
array2[205 * STEP_SIZE] @ 0x5af880
array2[206 * STEP_SIZE] @ 0x5b0880
array2[207 * STEP_SIZE] @ 0x5b1880
array2[208 * STEP_SIZE] @ 0x5b2880
array2[209 * STEP_SIZE] @ 0x5b3880
array2[210 * STEP_SIZE] @ 0x5b4880
array2[211 * STEP_SIZE] @ 0x5b5880
array2[212 * STEP_SIZE] @ 0x5b6880
array2[213 * STEP_SIZE] @ 0x5b7880
array2[214 * STEP_SIZE] @ 0x5b8880
array2[215 * STEP_SIZE] @ 0x5b9880
array2[216 * STEP_SIZE] @ 0x5ba880
array2[217 * STEP_SIZE] @ 0x5bb880
array2[218 * STEP_SIZE] @ 0x5bc880
array2[219 * STEP_SIZE] @ 0x5bd880
array2[220 * STEP_SIZE] @ 0x5be880
array2[221 * STEP_SIZE] @ 0x5bf880
array2[222 * STEP_SIZE] @ 0x5c0880
array2[223 * STEP_SIZE] @ 0x5c1880
array2[224 * STEP_SIZE] @ 0x5c2880
array2[225 * STEP_SIZE] @ 0x5c3880
array2[226 * STEP_SIZE] @ 0x5c4880
array2[227 * STEP_SIZE] @ 0x5c5880
array2[228 * STEP_SIZE] @ 0x5c6880
array2[229 * STEP_SIZE] @ 0x5c7880
array2[230 * STEP_SIZE] @ 0x5c8880
array2[231 * STEP_SIZE] @ 0x5c9880
array2[232 * STEP_SIZE] @ 0x5ca880
array2[233 * STEP_SIZE] @ 0x5cb880
array2[234 * STEP_SIZE] @ 0x5cc880
array2[235 * STEP_SIZE] @ 0x5cd880
array2[236 * STEP_SIZE] @ 0x5ce880
array2[237 * STEP_SIZE] @ 0x5cf880
array2[238 * STEP_SIZE] @ 0x5d0880
array2[239 * STEP_SIZE] @ 0x5d1880
array2[240 * STEP_SIZE] @ 0x5d2880
array2[241 * STEP_SIZE] @ 0x5d3880
array2[242 * STEP_SIZE] @ 0x5d4880
array2[243 * STEP_SIZE] @ 0x5d5880
array2[244 * STEP_SIZE] @ 0x5d6880
array2[245 * STEP_SIZE] @ 0x5d7880
array2[246 * STEP_SIZE] @ 0x5d8880
array2[247 * STEP_SIZE] @ 0x5d9880
array2[248 * STEP_SIZE] @ 0x5da880
array2[249 * STEP_SIZE] @ 0x5db880
array2[250 * STEP_SIZE] @ 0x5dc880
array2[251 * STEP_SIZE] @ 0x5dd880
array2[252 * STEP_SIZE] @ 0x5de880
array2[253 * STEP_SIZE] @ 0x5df880
array2[254 * STEP_SIZE] @ 0x5e0880
array2[255 * STEP_SIZE] @ 0x5e1880
========== Exiting @ tick 4444892500 because exiting with last active thread context
