gem5 Simulator System.  http://gem5.org
gem5 is copyrighted software; use the --copyright option for details.

gem5 compiled Apr 20 2022 11:37:08
gem5 started Apr 20 2022 12:00:31
gem5 executing on ubuntu, pid 4221
command line: ../build/X86_MESI_Two_Level/gem5.opt --debug-start=0 se_run_experiment.py --mem-type SimpleMemory --cmd bin/control_mem_dtlb_store --cpu-type DerivO3CPU --cpu-clock 2GHz --sys-clock 2GHz --l1d_size 32kB --l1d_assoc 8 --l1i_size 32kB --l1d_assoc 8 --l2_size 2MB --l2_assoc 16 --l2cache --caches --mode 2 --stt False

Launching /home/jiabinlin/Desktop/ECEN5593/dolma/idolma/attacks/se_run_experiment.py:run_experiment:87
**** REAL SIMULATION **** (max ticks: 18446744073709551615)
Global frequency set at 1000000000000 ticks per second
Using following config...
	DOLMA-Conservative (M+R)
========== Exiting @ tick 9553412000 because workbegin
0x2a
9553.413.000: system.cpu.dtb: In protected mode.
9553.413.000: system.cpu.dtb: In protected mode.
9553.419.500: system.cpu.itb: Translating vaddr 0x401fc0 at pc 0x401f01 (mode == Read).
9553.419.500: system.cpu.itb: In protected mode.
9553.419.500: system.cpu.itb: Paging enabled.
9553.419.500: system.cpu.itb: Entry found with paddr 0, doing protection checks.
9553.419.500: system.cpu.itb: Translated 0x401fc0 -> 0xfc0.
9553.420.000: system.cpu.dtb: Translating vaddr 0x7fffffffe4a8 at pc 0x401f01 (mode == Read).
9553.420.000: system.cpu.dtb: In protected mode.
9553.420.000: system.cpu.dtb: Paging enabled.
9553.420.000: system.cpu.dtb: Entry found with paddr 0x2e2000, doing protection checks.
9553.420.000: system.cpu.dtb: Translated 0x7fffffffe4a8 -> 0x2e24a8.
9553.420.000: system.cpu.dtb: Translating vaddr 0x7fffffffe488 at pc 0x401f01 (mode == Read).
9553.420.000: system.cpu.dtb: In protected mode.
9553.420.000: system.cpu.dtb: Paging enabled.
9553.420.000: system.cpu.dtb: Entry found with paddr 0x2e2000, doing protection checks.
9553.420.000: system.cpu.dtb: Translated 0x7fffffffe488 -> 0x2e2488.
9553.421.500: system.cpu.dtb: Translating vaddr 0x7fffffffe46c at pc 0x401f06 (mode == Write).
9553.421.500: system.cpu.dtb: In protected mode.
9553.421.500: system.cpu.dtb: Paging enabled.
9553.421.500: system.cpu.dtb: Entry found with paddr 0x2e2000, doing protection checks.
9553.421.500: system.cpu.dtb: Translated 0x7fffffffe46c -> 0x2e246c.
9553.422.000: system.cpu.dtb: Translating vaddr 0x4e2880 at pc 0x401f06 (mode == Read).
9553.422.000: system.cpu.dtb: In protected mode.
9553.422.000: system.cpu.dtb: Paging enabled.
9553.422.000: system.cpu.dtb: Entry found with paddr 0xb8000, doing protection checks.
9553.422.000: system.cpu.dtb: Translated 0x4e2880 -> 0xb8880.
9553.422.500: system.cpu.dtb: In protected mode.
9553.425.000: system.cpu.dtb: Translating vaddr 0x7fffffffe46c at pc 0x401f23 (mode == Write).
9553.425.000: system.cpu.dtb: In protected mode.
9553.425.000: system.cpu.dtb: Paging enabled.
9553.425.000: system.cpu.dtb: Entry found with paddr 0x2e2000, doing protection checks.
9553.425.000: system.cpu.dtb: Translated 0x7fffffffe46c -> 0x2e246c.
9553.425.500: system.cpu.dtb: Translating vaddr 0x7fffffffe4a0 at pc 0x401f23 (mode == Write).
9553.425.500: system.cpu.dtb: In protected mode.
9553.425.500: system.cpu.dtb: Paging enabled.
9553.425.500: system.cpu.dtb: Entry found with paddr 0x2e2000, doing protection checks.
9553.425.500: system.cpu.dtb: Translated 0x7fffffffe4a0 -> 0x2e24a0.
9553.431.500: system.cpu.itb: Translating vaddr 0x402000 at pc 0x401f3a (mode == Read).
9553.431.500: system.cpu.itb: In protected mode.
9553.431.500: system.cpu.itb: Paging enabled.
9553.431.500: system.cpu.itb: Entry found with paddr 0x1000, doing protection checks.
9553.431.500: system.cpu.itb: Translated 0x402000 -> 0x1000.
9553.432.500: system.cpu.dtb: Translating vaddr 0x7fffffffe4a0 at pc 0x401f3a (mode == Read).
9553.432.500: system.cpu.dtb: In protected mode.
9553.432.500: system.cpu.dtb: Paging enabled.
9553.432.500: system.cpu.dtb: Entry found with paddr 0x2e2000, doing protection checks.
9553.432.500: system.cpu.dtb: Translated 0x7fffffffe4a0 -> 0x2e24a0.
9553.432.500: system.cpu.dtb: Translating vaddr 0x7fffffffe478 at pc 0x401f3a (mode == Read).
9553.432.500: system.cpu.dtb: In protected mode.
9553.432.500: system.cpu.dtb: Paging enabled.
9553.432.500: system.cpu.dtb: Entry found with paddr 0x2e2000, doing protection checks.
9553.432.500: system.cpu.dtb: Translated 0x7fffffffe478 -> 0x2e2478.
9553.433.000: system.cpu.dtb: Translating vaddr 0x7fffffffe478 at pc 0x401f3a (mode == Read).
9553.433.000: system.cpu.dtb: In protected mode.
9553.433.000: system.cpu.dtb: Paging enabled.
9553.433.000: system.cpu.dtb: Entry found with paddr 0x2e2000, doing protection checks.
9553.433.000: system.cpu.dtb: Translated 0x7fffffffe478 -> 0x2e2478.
9553.433.500: system.cpu.dtb: Translating vaddr 0x7fffffffe478 at pc 0x401f3f (mode == Read).
9553.433.500: system.cpu.dtb: In protected mode.
9553.433.500: system.cpu.dtb: Paging enabled.
9553.433.500: system.cpu.dtb: Entry found with paddr 0x2e2000, doing protection checks.
9553.433.500: system.cpu.dtb: Translated 0x7fffffffe478 -> 0x2e2478.
9553.434.000: system.cpu.dtb: Translating vaddr 0x7fffffffe46c at pc 0x401f3f (mode == Write).
9553.434.000: system.cpu.dtb: In protected mode.
9553.434.000: system.cpu.dtb: Paging enabled.
9553.434.000: system.cpu.dtb: Entry found with paddr 0x2e2000, doing protection checks.
9553.434.000: system.cpu.dtb: Translated 0x7fffffffe46c -> 0x2e246c.
9553.434.000: system.cpu.dtb: Translating vaddr 0x7fffffffe438 at pc 0x401f3f (mode == Write).
9553.434.000: system.cpu.dtb: In protected mode.
9553.434.000: system.cpu.dtb: Paging enabled.
9553.434.000: system.cpu.dtb: Entry found with paddr 0x2e2000, doing protection checks.
9553.434.000: system.cpu.dtb: Translated 0x7fffffffe438 -> 0x2e2438.
9553.434.000: system.cpu.dtb: Translating vaddr 0x7fffffffe478 at pc 0x401f3f (mode == Read).
9553.434.000: system.cpu.dtb: In protected mode.
9553.434.000: system.cpu.dtb: Paging enabled.
9553.434.000: system.cpu.dtb: Entry found with paddr 0x2e2000, doing protection checks.
9553.434.000: system.cpu.dtb: Translated 0x7fffffffe478 -> 0x2e2478.
9553.434.500: system.cpu.dtb: Translating vaddr 0x7fffffffe46c at pc 0x401f3f (mode == Read).
9553.434.500: system.cpu.dtb: In protected mode.
9553.434.500: system.cpu.dtb: Paging enabled.
9553.434.500: system.cpu.dtb: Entry found with paddr 0x2e2000, doing protection checks.
9553.434.500: system.cpu.dtb: Translated 0x7fffffffe46c -> 0x2e246c.
9553.434.500: system.cpu.dtb: Translating vaddr 0x7fffffffe47c at pc 0x401f3f (mode == Read).
9553.434.500: system.cpu.dtb: In protected mode.
9553.434.500: system.cpu.dtb: Paging enabled.
9553.434.500: system.cpu.dtb: Entry found with paddr 0x2e2000, doing protection checks.
9553.434.500: system.cpu.dtb: Translated 0x7fffffffe47c -> 0x2e247c.
9553.434.500: system.cpu.dtb: Translating vaddr 0x7fffffffe450 at pc 0x401f3f (mode == Read).
9553.434.500: system.cpu.dtb: In protected mode.
9553.434.500: system.cpu.dtb: Paging enabled.
9553.434.500: system.cpu.dtb: Entry found with paddr 0x2e2000, doing protection checks.
9553.434.500: system.cpu.dtb: Translated 0x7fffffffe450 -> 0x2e2450.
9553.435.000: system.cpu.dtb: Translating vaddr 0x7fffffffe4b0 at pc 0x401f3f (mode == Read).
9553.435.000: system.cpu.dtb: In protected mode.
9553.435.000: system.cpu.dtb: Paging enabled.
9553.435.000: system.cpu.dtb: Entry found with paddr 0x2e2000, doing protection checks.
9553.435.000: system.cpu.dtb: Translated 0x7fffffffe4b0 -> 0x2e24b0.
9553.435.500: system.cpu.itb: Translating vaddr 0x401c80 at pc 0x401f3f (mode == Read).
9553.435.500: system.cpu.itb: In protected mode.
9553.435.500: system.cpu.itb: Paging enabled.
9553.435.500: system.cpu.itb: Entry found with paddr 0, doing protection checks.
9553.435.500: system.cpu.itb: Translated 0x401c80 -> 0xc80.
9553.436.500: system.cpu.itb: Translating vaddr 0x49bfc0 at pc 0x401f3f (mode == Read).
9553.436.500: system.cpu.itb: In protected mode.
9553.436.500: system.cpu.itb: Paging enabled.
9553.436.500: system.cpu.itb: Entry found with paddr 0x9a000, doing protection checks.
9553.436.500: system.cpu.itb: Translated 0x49bfc0 -> 0x9afc0.
9553.437.000: system.cpu.dtb: Translating vaddr 0x7fffffffe4b0 at pc 0x401f5d (mode == Write).
9553.437.000: system.cpu.dtb: In protected mode.
9553.437.000: system.cpu.dtb: Paging enabled.
9553.437.000: system.cpu.dtb: Entry found with paddr 0x2e2000, doing protection checks.
9553.437.000: system.cpu.dtb: Translated 0x7fffffffe4b0 -> 0x2e24b0.
9553.437.500: system.cpu.itb: Translating vaddr 0x49c000 at pc 0x401f65 (mode == Read).
9553.437.500: system.cpu.itb: In protected mode.
9553.437.500: system.cpu.itb: Paging enabled.
9553.437.500: system.cpu.itb: Entry found with paddr 0x9b000, doing protection checks.
9553.437.500: system.cpu.itb: Translated 0x49c000 -> 0x9b000.
9553.438.000: system.cpu.dtb: In protected mode.
9553.440.000: system.cpu.dtb: Translating vaddr 0x7fffffffe438 at pc 0x401cae (mode == Read).
9553.440.000: system.cpu.dtb: In protected mode.
9553.440.000: system.cpu.dtb: Paging enabled.
9553.440.000: system.cpu.dtb: Entry found with paddr 0x2e2000, doing protection checks.
9553.440.000: system.cpu.dtb: Translated 0x7fffffffe438 -> 0x2e2438.
9553.440.500: system.cpu.itb: Translating vaddr 0x49c040 at pc 0x401cae (mode == Read).
9553.440.500: system.cpu.itb: In protected mode.
9553.440.500: system.cpu.itb: Paging enabled.
9553.440.500: system.cpu.itb: Entry found with paddr 0x9b000, doing protection checks.
9553.440.500: system.cpu.itb: Translated 0x49c040 -> 0x9b040.
9553.441.500: system.cpu.dtb: Translating vaddr 0x7fffffffecd8 at pc 0x401cae (mode == Read).
9553.441.500: system.cpu.dtb: In protected mode.
9553.441.500: system.cpu.dtb: Paging enabled.
9553.441.500: system.cpu.dtb: Entry found with paddr 0x2e2000, doing protection checks.
9553.441.500: system.cpu.dtb: Translated 0x7fffffffecd8 -> 0x2e2cd8.
9553.442.500: system.cpu.itb: Translating vaddr 0x401f80 at pc 0x401cae (mode == Read).
9553.442.500: system.cpu.itb: In protected mode.
9553.442.500: system.cpu.itb: Paging enabled.
9553.442.500: system.cpu.itb: Entry found with paddr 0, doing protection checks.
9553.442.500: system.cpu.itb: Translated 0x401f80 -> 0xf80.
========== Exiting @ tick 9553442500 because workbegin
0x2b
========== Exiting @ tick 9563280500 because workbegin
0x2a
9563.281.500: system.cpu.itb: Translating vaddr 0x49e300 at pc 0x401cae (mode == Read).
9563.281.500: system.cpu.itb: In protected mode.
9563.281.500: system.cpu.itb: Paging enabled.
9563.281.500: system.cpu.itb: Entry found with paddr 0x9d000, doing protection checks.
9563.281.500: system.cpu.itb: Translated 0x49e300 -> 0x9d300.
9563.281.500: system.cpu.dtb: Translating vaddr 0xfffffffffffd1d84 at pc 0x401cae (mode == Write).
9563.281.500: system.cpu.dtb: In protected mode.
9563.281.500: system.cpu.dtb: Paging enabled.
9563.281.500: system.cpu.dtb: Handling a TLB miss for address 0xfffffffffffd1d84 at pc 0x401cae (mode == Write).
9563.281.500: system.cpu.dtb: Ignoring unsafe TLB miss for address 0xfffffffffffd1d84 at pc 0x401cae (mode == Write).
9563.282.500: system.cpu.itb: Translating vaddr 0x401ec0 at pc 0x401cae (mode == Read).
9563.282.500: system.cpu.itb: In protected mode.
9563.282.500: system.cpu.itb: Paging enabled.
9563.282.500: system.cpu.itb: Entry found with paddr 0, doing protection checks.
9563.282.500: system.cpu.itb: Translated 0x401ec0 -> 0xec0.
9563.284.000: system.cpu.itb: Translating vaddr 0x401f00 at pc 0x401ed7 (mode == Read).
9563.284.000: system.cpu.itb: In protected mode.
9563.284.000: system.cpu.itb: Paging enabled.
9563.284.000: system.cpu.itb: Entry found with paddr 0, doing protection checks.
9563.284.000: system.cpu.itb: Translated 0x401f00 -> 0xf00.
9563.286.000: system.cpu.dtb: Translating vaddr 0x7fffffffe478 at pc 0x401ed7 (mode == Read).
9563.286.000: system.cpu.dtb: In protected mode.
9563.286.000: system.cpu.dtb: Paging enabled.
9563.286.000: system.cpu.dtb: Entry found with paddr 0x2e2000, doing protection checks.
9563.286.000: system.cpu.dtb: Translated 0x7fffffffe478 -> 0x2e2478.
9563.286.500: system.cpu.itb: Translating vaddr 0x401f40 at pc 0x401ed7 (mode == Read).
9563.286.500: system.cpu.itb: In protected mode.
9563.286.500: system.cpu.itb: Paging enabled.
9563.286.500: system.cpu.itb: Entry found with paddr 0, doing protection checks.
9563.286.500: system.cpu.itb: Translated 0x401f40 -> 0xf40.
9563.288.000: system.cpu.itb: Translating vaddr 0x401f80 at pc 0x401ed7 (mode == Read).
9563.288.000: system.cpu.itb: In protected mode.
9563.288.000: system.cpu.itb: Paging enabled.
9563.288.000: system.cpu.itb: Entry found with paddr 0, doing protection checks.
9563.288.000: system.cpu.itb: Translated 0x401f80 -> 0xf80.
9563.289.000: system.cpu.dtb: Translating vaddr 0x7fffffffe488 at pc 0x401ee0 (mode == Write).
9563.289.000: system.cpu.dtb: In protected mode.
9563.289.000: system.cpu.dtb: Paging enabled.
9563.289.000: system.cpu.dtb: Entry found with paddr 0x2e2000, doing protection checks.
9563.289.000: system.cpu.dtb: Translated 0x7fffffffe488 -> 0x2e2488.
9563.289.500: system.cpu.dtb: Translating vaddr 0x7fffffffe4a8 at pc 0x401ee9 (mode == Write).
9563.289.500: system.cpu.dtb: In protected mode.
9563.289.500: system.cpu.dtb: Paging enabled.
9563.289.500: system.cpu.dtb: Entry found with paddr 0x2e2000, doing protection checks.
9563.289.500: system.cpu.dtb: Translated 0x7fffffffe4a8 -> 0x2e24a8.
9563.296.000: system.cpu.itb: Translating vaddr 0x401fc0 at pc 0x401f01 (mode == Read).
9563.296.000: system.cpu.itb: In protected mode.
9563.296.000: system.cpu.itb: Paging enabled.
9563.296.000: system.cpu.itb: Entry found with paddr 0, doing protection checks.
9563.296.000: system.cpu.itb: Translated 0x401fc0 -> 0xfc0.
9563.296.500: system.cpu.dtb: Translating vaddr 0x7fffffffe4a8 at pc 0x401f01 (mode == Read).
9563.296.500: system.cpu.dtb: In protected mode.
9563.296.500: system.cpu.dtb: Paging enabled.
9563.296.500: system.cpu.dtb: Entry found with paddr 0x2e2000, doing protection checks.
9563.296.500: system.cpu.dtb: Translated 0x7fffffffe4a8 -> 0x2e24a8.
9563.296.500: system.cpu.dtb: Translating vaddr 0x7fffffffe488 at pc 0x401f01 (mode == Read).
9563.296.500: system.cpu.dtb: In protected mode.
9563.296.500: system.cpu.dtb: Paging enabled.
9563.296.500: system.cpu.dtb: Entry found with paddr 0x2e2000, doing protection checks.
9563.296.500: system.cpu.dtb: Translated 0x7fffffffe488 -> 0x2e2488.
9563.298.000: system.cpu.dtb: Translating vaddr 0x7fffffffe46c at pc 0x401f06 (mode == Write).
9563.298.000: system.cpu.dtb: In protected mode.
9563.298.000: system.cpu.dtb: Paging enabled.
9563.298.000: system.cpu.dtb: Entry found with paddr 0x2e2000, doing protection checks.
9563.298.000: system.cpu.dtb: Translated 0x7fffffffe46c -> 0x2e246c.
9563.298.500: system.cpu.dtb: Translating vaddr 0x4e3880 at pc 0x401f06 (mode == Read).
9563.298.500: system.cpu.dtb: In protected mode.
9563.298.500: system.cpu.dtb: Paging enabled.
9563.298.500: system.cpu.dtb: Handling a TLB miss for address 0x4e3880 at pc 0x401f06 (mode == Read).
9563.298.500: system.cpu.dtb: Mapping 0x4e3000 to 0xb9000
9563.298.500: system.cpu.dtb: Evicting address 0x5a8000.
9563.298.500: system.cpu.dtb: Miss was serviced.
9563.298.500: system.cpu.dtb: Entry found with paddr 0xb9000, doing protection checks.
9563.298.500: system.cpu.dtb: Translated 0x4e3880 -> 0xb9880.
9563.313.500: system.cpu.dtb: Translating vaddr 0x7fffffffe46c at pc 0x401f23 (mode == Write).
9563.313.500: system.cpu.dtb: In protected mode.
9563.313.500: system.cpu.dtb: Paging enabled.
9563.313.500: system.cpu.dtb: Entry found with paddr 0x2e2000, doing protection checks.
9563.313.500: system.cpu.dtb: Translated 0x7fffffffe46c -> 0x2e246c.
9563.314.000: system.cpu.dtb: Translating vaddr 0x7fffffffe4a0 at pc 0x401f23 (mode == Write).
9563.314.000: system.cpu.dtb: In protected mode.
9563.314.000: system.cpu.dtb: Paging enabled.
9563.314.000: system.cpu.dtb: Entry found with paddr 0x2e2000, doing protection checks.
9563.314.000: system.cpu.dtb: Translated 0x7fffffffe4a0 -> 0x2e24a0.
9563.320.000: system.cpu.itb: Translating vaddr 0x402000 at pc 0x401f3a (mode == Read).
9563.320.000: system.cpu.itb: In protected mode.
9563.320.000: system.cpu.itb: Paging enabled.
9563.320.000: system.cpu.itb: Entry found with paddr 0x1000, doing protection checks.
9563.320.000: system.cpu.itb: Translated 0x402000 -> 0x1000.
9563.321.000: system.cpu.dtb: Translating vaddr 0x7fffffffe4a0 at pc 0x401f3a (mode == Read).
9563.321.000: system.cpu.dtb: In protected mode.
9563.321.000: system.cpu.dtb: Paging enabled.
9563.321.000: system.cpu.dtb: Entry found with paddr 0x2e2000, doing protection checks.
9563.321.000: system.cpu.dtb: Translated 0x7fffffffe4a0 -> 0x2e24a0.
9563.321.000: system.cpu.dtb: Translating vaddr 0x7fffffffe478 at pc 0x401f3a (mode == Read).
9563.321.000: system.cpu.dtb: In protected mode.
9563.321.000: system.cpu.dtb: Paging enabled.
9563.321.000: system.cpu.dtb: Entry found with paddr 0x2e2000, doing protection checks.
9563.321.000: system.cpu.dtb: Translated 0x7fffffffe478 -> 0x2e2478.
9563.321.500: system.cpu.dtb: Translating vaddr 0x7fffffffe478 at pc 0x401f3a (mode == Read).
9563.321.500: system.cpu.dtb: In protected mode.
9563.321.500: system.cpu.dtb: Paging enabled.
9563.321.500: system.cpu.dtb: Entry found with paddr 0x2e2000, doing protection checks.
9563.321.500: system.cpu.dtb: Translated 0x7fffffffe478 -> 0x2e2478.
9563.322.000: system.cpu.dtb: Translating vaddr 0x7fffffffe478 at pc 0x401f3f (mode == Read).
9563.322.000: system.cpu.dtb: In protected mode.
9563.322.000: system.cpu.dtb: Paging enabled.
9563.322.000: system.cpu.dtb: Entry found with paddr 0x2e2000, doing protection checks.
9563.322.000: system.cpu.dtb: Translated 0x7fffffffe478 -> 0x2e2478.
9563.322.500: system.cpu.itb: Translating vaddr 0x45c600 at pc 0x401f3f (mode == Read).
9563.322.500: system.cpu.itb: In protected mode.
9563.322.500: system.cpu.itb: Paging enabled.
9563.322.500: system.cpu.itb: Entry found with paddr 0x5b000, doing protection checks.
9563.322.500: system.cpu.itb: Translated 0x45c600 -> 0x5b600.
9563.322.500: system.cpu.dtb: Translating vaddr 0x7fffffffe46c at pc 0x401f3f (mode == Write).
9563.322.500: system.cpu.dtb: In protected mode.
9563.322.500: system.cpu.dtb: Paging enabled.
9563.322.500: system.cpu.dtb: Entry found with paddr 0x2e2000, doing protection checks.
9563.322.500: system.cpu.dtb: Translated 0x7fffffffe46c -> 0x2e246c.
9563.322.500: system.cpu.dtb: Translating vaddr 0x7fffffffe438 at pc 0x401f3f (mode == Write).
9563.322.500: system.cpu.dtb: In protected mode.
9563.322.500: system.cpu.dtb: Paging enabled.
9563.322.500: system.cpu.dtb: Entry found with paddr 0x2e2000, doing protection checks.
9563.322.500: system.cpu.dtb: Translated 0x7fffffffe438 -> 0x2e2438.
9563.323.000: system.cpu.dtb: Translating vaddr 0x7fffffffe46c at pc 0x401f3f (mode == Read).
9563.323.000: system.cpu.dtb: In protected mode.
9563.323.000: system.cpu.dtb: Paging enabled.
9563.323.000: system.cpu.dtb: Entry found with paddr 0x2e2000, doing protection checks.
9563.323.000: system.cpu.dtb: Translated 0x7fffffffe46c -> 0x2e246c.
9563.323.000: system.cpu.dtb: Translating vaddr 0x7fffffffe47c at pc 0x401f3f (mode == Read).
9563.323.000: system.cpu.dtb: In protected mode.
9563.323.000: system.cpu.dtb: Paging enabled.
9563.323.000: system.cpu.dtb: Entry found with paddr 0x2e2000, doing protection checks.
9563.323.000: system.cpu.dtb: Translated 0x7fffffffe47c -> 0x2e247c.
9563.323.000: system.cpu.dtb: Translating vaddr 0x7fffffffe450 at pc 0x401f3f (mode == Read).
9563.323.000: system.cpu.dtb: In protected mode.
9563.323.000: system.cpu.dtb: Paging enabled.
9563.323.000: system.cpu.dtb: Entry found with paddr 0x2e2000, doing protection checks.
9563.323.000: system.cpu.dtb: Translated 0x7fffffffe450 -> 0x2e2450.
9563.323.500: system.cpu.dtb: Translating vaddr 0x7fffffffe4b8 at pc 0x401f3f (mode == Read).
9563.323.500: system.cpu.dtb: In protected mode.
9563.323.500: system.cpu.dtb: Paging enabled.
9563.323.500: system.cpu.dtb: Entry found with paddr 0x2e2000, doing protection checks.
9563.323.500: system.cpu.dtb: Translated 0x7fffffffe4b8 -> 0x2e24b8.
9563.324.000: system.cpu.itb: Translating vaddr 0x401c80 at pc 0x401f3f (mode == Read).
9563.324.000: system.cpu.itb: In protected mode.
9563.324.000: system.cpu.itb: Paging enabled.
9563.324.000: system.cpu.itb: Entry found with paddr 0, doing protection checks.
9563.324.000: system.cpu.itb: Translated 0x401c80 -> 0xc80.
9563.325.000: system.cpu.itb: Translating vaddr 0x45c600 at pc 0x401f3f (mode == Read).
9563.325.000: system.cpu.itb: In protected mode.
9563.325.000: system.cpu.itb: Paging enabled.
9563.325.000: system.cpu.itb: Entry found with paddr 0x5b000, doing protection checks.
9563.325.000: system.cpu.itb: Translated 0x45c600 -> 0x5b600.
9563.325.500: system.cpu.dtb: Translating vaddr 0x7fffffffe4b8 at pc 0x401f5d (mode == Write).
9563.325.500: system.cpu.dtb: In protected mode.
9563.325.500: system.cpu.dtb: Paging enabled.
9563.325.500: system.cpu.dtb: Entry found with paddr 0x2e2000, doing protection checks.
9563.325.500: system.cpu.dtb: Translated 0x7fffffffe4b8 -> 0x2e24b8.
9563.328.500: system.cpu.dtb: Translating vaddr 0x7fffffffe438 at pc 0x401cae (mode == Read).
9563.328.500: system.cpu.dtb: In protected mode.
9563.328.500: system.cpu.dtb: Paging enabled.
9563.328.500: system.cpu.dtb: Entry found with paddr 0x2e2000, doing protection checks.
9563.328.500: system.cpu.dtb: Translated 0x7fffffffe438 -> 0x2e2438.
9563.331.000: system.cpu.itb: Translating vaddr 0x401f80 at pc 0x401cae (mode == Read).
9563.331.000: system.cpu.itb: In protected mode.
9563.331.000: system.cpu.itb: Paging enabled.
9563.331.000: system.cpu.itb: Entry found with paddr 0, doing protection checks.
9563.331.000: system.cpu.itb: Translated 0x401f80 -> 0xf80.
========== Exiting @ tick 9563331000 because workbegin
0x2b
========== Exiting @ tick 9573118000 because workbegin
0x2a
9573.119.500: system.cpu.itb: Translating vaddr 0x401ec0 at pc 0x401cae (mode == Read).
9573.119.500: system.cpu.itb: In protected mode.
9573.119.500: system.cpu.itb: Paging enabled.
9573.119.500: system.cpu.itb: Entry found with paddr 0, doing protection checks.
9573.119.500: system.cpu.itb: Translated 0x401ec0 -> 0xec0.
9573.121.000: system.cpu.itb: Translating vaddr 0x401f00 at pc 0x401ed7 (mode == Read).
9573.121.000: system.cpu.itb: In protected mode.
9573.121.000: system.cpu.itb: Paging enabled.
9573.121.000: system.cpu.itb: Entry found with paddr 0, doing protection checks.
9573.121.000: system.cpu.itb: Translated 0x401f00 -> 0xf00.
9573.123.500: system.cpu.itb: Translating vaddr 0x401f40 at pc 0x401ed7 (mode == Read).
9573.123.500: system.cpu.itb: In protected mode.
9573.123.500: system.cpu.itb: Paging enabled.
9573.123.500: system.cpu.itb: Entry found with paddr 0, doing protection checks.
9573.123.500: system.cpu.itb: Translated 0x401f40 -> 0xf40.
9573.124.000: system.cpu.dtb: Translating vaddr 0x7fffffffe478 at pc 0x401ed7 (mode == Read).
9573.124.000: system.cpu.dtb: In protected mode.
9573.124.000: system.cpu.dtb: Paging enabled.
9573.124.000: system.cpu.dtb: Entry found with paddr 0x2e2000, doing protection checks.
9573.124.000: system.cpu.dtb: Translated 0x7fffffffe478 -> 0x2e2478.
9573.125.000: system.cpu.itb: Translating vaddr 0x401f80 at pc 0x401ed7 (mode == Read).
9573.125.000: system.cpu.itb: In protected mode.
9573.125.000: system.cpu.itb: Paging enabled.
9573.125.000: system.cpu.itb: Entry found with paddr 0, doing protection checks.
9573.125.000: system.cpu.itb: Translated 0x401f80 -> 0xf80.
9573.126.000: system.cpu.itb: Translating vaddr 0x401c80 at pc 0x401ed7 (mode == Read).
9573.126.000: system.cpu.itb: In protected mode.
9573.126.000: system.cpu.itb: Paging enabled.
9573.126.000: system.cpu.itb: Entry found with paddr 0, doing protection checks.
9573.126.000: system.cpu.itb: Translated 0x401c80 -> 0xc80.
9573.127.000: system.cpu.itb: Translating vaddr 0x401f80 at pc 0x401ee0 (mode == Read).
9573.127.000: system.cpu.itb: In protected mode.
9573.127.000: system.cpu.itb: Paging enabled.
9573.127.000: system.cpu.itb: Entry found with paddr 0, doing protection checks.
9573.127.000: system.cpu.itb: Translated 0x401f80 -> 0xf80.
9573.127.000: system.cpu.dtb: Translating vaddr 0x7fffffffe488 at pc 0x401ee0 (mode == Write).
9573.127.000: system.cpu.dtb: In protected mode.
9573.127.000: system.cpu.dtb: Paging enabled.
9573.127.000: system.cpu.dtb: Entry found with paddr 0x2e2000, doing protection checks.
9573.127.000: system.cpu.dtb: Translated 0x7fffffffe488 -> 0x2e2488.
9573.127.500: system.cpu.dtb: Translating vaddr 0x7fffffffe4a8 at pc 0x401ee9 (mode == Write).
9573.127.500: system.cpu.dtb: In protected mode.
9573.127.500: system.cpu.dtb: Paging enabled.
9573.127.500: system.cpu.dtb: Entry found with paddr 0x2e2000, doing protection checks.
9573.127.500: system.cpu.dtb: Translated 0x7fffffffe4a8 -> 0x2e24a8.
9573.134.000: system.cpu.itb: Translating vaddr 0x401d40 at pc 0x401f01 (mode == Read).
9573.134.000: system.cpu.itb: In protected mode.
9573.134.000: system.cpu.itb: Paging enabled.
9573.134.000: system.cpu.itb: Entry found with paddr 0, doing protection checks.
9573.134.000: system.cpu.itb: Translated 0x401d40 -> 0xd40.
9573.134.500: system.cpu.dtb: Translating vaddr 0x7fffffffe4a8 at pc 0x401f01 (mode == Read).
9573.134.500: system.cpu.dtb: In protected mode.
9573.134.500: system.cpu.dtb: Paging enabled.
9573.134.500: system.cpu.dtb: Entry found with paddr 0x2e2000, doing protection checks.
9573.134.500: system.cpu.dtb: Translated 0x7fffffffe4a8 -> 0x2e24a8.
9573.134.500: system.cpu.dtb: Translating vaddr 0x7fffffffe488 at pc 0x401f01 (mode == Read).
9573.134.500: system.cpu.dtb: In protected mode.
9573.134.500: system.cpu.dtb: Paging enabled.
9573.134.500: system.cpu.dtb: Entry found with paddr 0x2e2000, doing protection checks.
9573.134.500: system.cpu.dtb: Translated 0x7fffffffe488 -> 0x2e2488.
9573.135.000: system.cpu.itb: Translating vaddr 0x401e80 at pc 0x401f01 (mode == Read).
9573.135.000: system.cpu.itb: In protected mode.
9573.135.000: system.cpu.itb: Paging enabled.
9573.135.000: system.cpu.itb: Entry found with paddr 0, doing protection checks.
9573.135.000: system.cpu.itb: Translated 0x401e80 -> 0xe80.
9573.136.000: system.cpu.itb: Translating vaddr 0x401ec0 at pc 0x401f06 (mode == Read).
9573.136.000: system.cpu.itb: In protected mode.
9573.136.000: system.cpu.itb: Paging enabled.
9573.136.000: system.cpu.itb: Entry found with paddr 0, doing protection checks.
9573.136.000: system.cpu.itb: Translated 0x401ec0 -> 0xec0.
9573.136.000: system.cpu.dtb: Translating vaddr 0x7fffffffe46c at pc 0x401f06 (mode == Write).
9573.136.000: system.cpu.dtb: In protected mode.
9573.136.000: system.cpu.dtb: Paging enabled.
9573.136.000: system.cpu.dtb: Entry found with paddr 0x2e2000, doing protection checks.
9573.136.000: system.cpu.dtb: Translated 0x7fffffffe46c -> 0x2e246c.
9573.136.500: system.cpu.dtb: Translating vaddr 0x4e4880 at pc 0x401f06 (mode == Read).
9573.136.500: system.cpu.dtb: In protected mode.
9573.136.500: system.cpu.dtb: Paging enabled.
9573.136.500: system.cpu.dtb: Handling a TLB miss for address 0x4e4880 at pc 0x401f06 (mode == Read).
9573.136.500: system.cpu.dtb: Mapping 0x4e4000 to 0xba000
9573.136.500: system.cpu.dtb: Evicting address 0x5a9000.
9573.136.500: system.cpu.dtb: Miss was serviced.
9573.136.500: system.cpu.dtb: Entry found with paddr 0xba000, doing protection checks.
9573.136.500: system.cpu.dtb: Translated 0x4e4880 -> 0xba880.
9573.151.500: system.cpu.dtb: Translating vaddr 0x7fffffffe46c at pc 0x401f23 (mode == Write).
9573.151.500: system.cpu.dtb: In protected mode.
9573.151.500: system.cpu.dtb: Paging enabled.
9573.151.500: system.cpu.dtb: Entry found with paddr 0x2e2000, doing protection checks.
9573.151.500: system.cpu.dtb: Translated 0x7fffffffe46c -> 0x2e246c.
9573.152.000: system.cpu.dtb: Translating vaddr 0x7fffffffe4a0 at pc 0x401f23 (mode == Write).
9573.152.000: system.cpu.dtb: In protected mode.
9573.152.000: system.cpu.dtb: Paging enabled.
9573.152.000: system.cpu.dtb: Entry found with paddr 0x2e2000, doing protection checks.
9573.152.000: system.cpu.dtb: Translated 0x7fffffffe4a0 -> 0x2e24a0.
9573.157.500: system.cpu.itb: Translating vaddr 0x401d40 at pc 0x401f3a (mode == Read).
9573.157.500: system.cpu.itb: In protected mode.
9573.157.500: system.cpu.itb: Paging enabled.
9573.157.500: system.cpu.itb: Entry found with paddr 0, doing protection checks.
9573.157.500: system.cpu.itb: Translated 0x401d40 -> 0xd40.
9573.159.000: system.cpu.itb: Translating vaddr 0x401d80 at pc 0x401f3a (mode == Read).
9573.159.000: system.cpu.itb: In protected mode.
9573.159.000: system.cpu.itb: Paging enabled.
9573.159.000: system.cpu.itb: Entry found with paddr 0, doing protection checks.
9573.159.000: system.cpu.itb: Translated 0x401d80 -> 0xd80.
9573.159.000: system.cpu.dtb: Translating vaddr 0x7fffffffe4a0 at pc 0x401f3a (mode == Read).
9573.159.000: system.cpu.dtb: In protected mode.
9573.159.000: system.cpu.dtb: Paging enabled.
9573.159.000: system.cpu.dtb: Entry found with paddr 0x2e2000, doing protection checks.
9573.159.000: system.cpu.dtb: Translated 0x7fffffffe4a0 -> 0x2e24a0.
9573.159.000: system.cpu.dtb: Translating vaddr 0x7fffffffe478 at pc 0x401f3a (mode == Read).
9573.159.000: system.cpu.dtb: In protected mode.
9573.159.000: system.cpu.dtb: Paging enabled.
9573.159.000: system.cpu.dtb: Entry found with paddr 0x2e2000, doing protection checks.
9573.159.000: system.cpu.dtb: Translated 0x7fffffffe478 -> 0x2e2478.
9573.159.500: system.cpu.dtb: Translating vaddr 0x7fffffffe478 at pc 0x401f3a (mode == Read).
9573.159.500: system.cpu.dtb: In protected mode.
9573.159.500: system.cpu.dtb: Paging enabled.
9573.159.500: system.cpu.dtb: Entry found with paddr 0x2e2000, doing protection checks.
9573.159.500: system.cpu.dtb: Translated 0x7fffffffe478 -> 0x2e2478.
9573.160.000: system.cpu.itb: Translating vaddr 0x401e80 at pc 0x401f3f (mode == Read).
9573.160.000: system.cpu.itb: In protected mode.
9573.160.000: system.cpu.itb: Paging enabled.
9573.160.000: system.cpu.itb: Entry found with paddr 0, doing protection checks.
9573.160.000: system.cpu.itb: Translated 0x401e80 -> 0xe80.
9573.160.500: system.cpu.dtb: Translating vaddr 0x7fffffffe46c at pc 0x401f3f (mode == Write).
9573.160.500: system.cpu.dtb: In protected mode.
9573.160.500: system.cpu.dtb: Paging enabled.
9573.160.500: system.cpu.dtb: Entry found with paddr 0x2e2000, doing protection checks.
9573.160.500: system.cpu.dtb: Translated 0x7fffffffe46c -> 0x2e246c.
9573.160.500: system.cpu.dtb: Translating vaddr 0x7fffffffe438 at pc 0x401f3f (mode == Write).
9573.160.500: system.cpu.dtb: In protected mode.
9573.160.500: system.cpu.dtb: Paging enabled.
9573.160.500: system.cpu.dtb: Entry found with paddr 0x2e2000, doing protection checks.
9573.160.500: system.cpu.dtb: Translated 0x7fffffffe438 -> 0x2e2438.
9573.160.500: system.cpu.dtb: Translating vaddr 0x7fffffffe438 at pc 0x401f3f (mode == Read).
9573.160.500: system.cpu.dtb: In protected mode.
9573.160.500: system.cpu.dtb: Paging enabled.
9573.160.500: system.cpu.dtb: Entry found with paddr 0x2e2000, doing protection checks.
9573.160.500: system.cpu.dtb: Translated 0x7fffffffe438 -> 0x2e2438.
9573.160.500: system.cpu.dtb: Translating vaddr 0x7fffffffe478 at pc 0x401f3f (mode == Read).
9573.160.500: system.cpu.dtb: In protected mode.
9573.160.500: system.cpu.dtb: Paging enabled.
9573.160.500: system.cpu.dtb: Entry found with paddr 0x2e2000, doing protection checks.
9573.160.500: system.cpu.dtb: Translated 0x7fffffffe478 -> 0x2e2478.
9573.161.000: system.cpu.dtb: Translating vaddr 0x7fffffffe478 at pc 0x401f3f (mode == Read).
9573.161.000: system.cpu.dtb: In protected mode.
9573.161.000: system.cpu.dtb: Paging enabled.
9573.161.000: system.cpu.dtb: Entry found with paddr 0x2e2000, doing protection checks.
9573.161.000: system.cpu.dtb: Translated 0x7fffffffe478 -> 0x2e2478.
9573.161.500: system.cpu.itb: Translating vaddr 0x401ec0 at pc 0x401f46 (mode == Read).
9573.161.500: system.cpu.itb: In protected mode.
9573.161.500: system.cpu.itb: Paging enabled.
9573.161.500: system.cpu.itb: Entry found with paddr 0, doing protection checks.
9573.161.500: system.cpu.itb: Translated 0x401ec0 -> 0xec0.
9573.161.500: system.cpu.dtb: Translating vaddr 0x7fffffffe4c0 at pc 0x401f46 (mode == Read).
9573.161.500: system.cpu.dtb: In protected mode.
9573.161.500: system.cpu.dtb: Paging enabled.
9573.161.500: system.cpu.dtb: Entry found with paddr 0x2e2000, doing protection checks.
9573.161.500: system.cpu.dtb: Translated 0x7fffffffe4c0 -> 0x2e24c0.
9573.161.500: system.cpu.dtb: Translating vaddr 0x7fffffffe474 at pc 0x401f46 (mode == Write).
9573.161.500: system.cpu.dtb: In protected mode.
9573.161.500: system.cpu.dtb: Paging enabled.
9573.161.500: system.cpu.dtb: Entry found with paddr 0x2e2000, doing protection checks.
9573.161.500: system.cpu.dtb: Translated 0x7fffffffe474 -> 0x2e2474.
9573.161.500: system.cpu.dtb: Translating vaddr 0x7fffffffe474 at pc 0x401f46 (mode == Read).
9573.161.500: system.cpu.dtb: In protected mode.
9573.161.500: system.cpu.dtb: Paging enabled.
9573.161.500: system.cpu.dtb: Entry found with paddr 0x2e2000, doing protection checks.
9573.161.500: system.cpu.dtb: Translated 0x7fffffffe474 -> 0x2e2474.
9573.162.000: system.cpu.dtb: Translating vaddr 0x7fffffffe474 at pc 0x401f5b (mode == Read).
9573.162.000: system.cpu.dtb: In protected mode.
9573.162.000: system.cpu.dtb: Paging enabled.
9573.162.000: system.cpu.dtb: Entry found with paddr 0x2e2000, doing protection checks.
9573.162.000: system.cpu.dtb: Translated 0x7fffffffe474 -> 0x2e2474.
9573.162.500: system.cpu.dtb: Translating vaddr 0x7fffffffe478 at pc 0x401f5d (mode == Write).
9573.162.500: system.cpu.dtb: In protected mode.
9573.162.500: system.cpu.dtb: Paging enabled.
9573.162.500: system.cpu.dtb: Entry found with paddr 0x2e2000, doing protection checks.
9573.162.500: system.cpu.dtb: Translated 0x7fffffffe478 -> 0x2e2478.
9573.162.500: system.cpu.dtb: Translating vaddr 0x4df0f0 at pc 0x401f5d (mode == Read).
9573.162.500: system.cpu.dtb: In protected mode.
9573.162.500: system.cpu.dtb: Paging enabled.
9573.162.500: system.cpu.dtb: Entry found with paddr 0xb5000, doing protection checks.
9573.162.500: system.cpu.dtb: Translated 0x4df0f0 -> 0xb50f0.
9573.163.000: system.cpu.dtb: Translating vaddr 0x7fffffffe47c at pc 0x401f5d (mode == Write).
9573.163.000: system.cpu.dtb: In protected mode.
9573.163.000: system.cpu.dtb: Paging enabled.
9573.163.000: system.cpu.dtb: Entry found with paddr 0x2e2000, doing protection checks.
9573.163.000: system.cpu.dtb: Translated 0x7fffffffe47c -> 0x2e247c.
9573.163.500: system.cpu.dtb: Translating vaddr 0x7fffffffe4c0 at pc 0x401f5d (mode == Write).
9573.163.500: system.cpu.dtb: In protected mode.
9573.163.500: system.cpu.dtb: Paging enabled.
9573.163.500: system.cpu.dtb: Entry found with paddr 0x2e2000, doing protection checks.
9573.163.500: system.cpu.dtb: Translated 0x7fffffffe4c0 -> 0x2e24c0.
9573.164.000: system.cpu.itb: Translating vaddr 0x401f80 at pc 0x401f5d (mode == Read).
9573.164.000: system.cpu.itb: In protected mode.
9573.164.000: system.cpu.itb: Paging enabled.
9573.164.000: system.cpu.itb: Entry found with paddr 0, doing protection checks.
9573.164.000: system.cpu.itb: Translated 0x401f80 -> 0xf80.
9573.165.000: system.cpu.itb: Translating vaddr 0x401d40 at pc 0x401f5d (mode == Read).
9573.165.000: system.cpu.itb: In protected mode.
9573.165.000: system.cpu.itb: Paging enabled.
9573.165.000: system.cpu.itb: Entry found with paddr 0, doing protection checks.
9573.165.000: system.cpu.itb: Translated 0x401d40 -> 0xd40.
9573.166.000: system.cpu.itb: Translating vaddr 0x401e80 at pc 0x401f5d (mode == Read).
9573.166.000: system.cpu.itb: In protected mode.
9573.166.000: system.cpu.itb: Paging enabled.
9573.166.000: system.cpu.itb: Entry found with paddr 0, doing protection checks.
9573.166.000: system.cpu.itb: Translated 0x401e80 -> 0xe80.
9573.166.000: system.cpu.dtb: In protected mode.
9573.167.000: system.cpu.itb: Translating vaddr 0x401ec0 at pc 0x401cae (mode == Read).
9573.167.000: system.cpu.itb: In protected mode.
9573.167.000: system.cpu.itb: Paging enabled.
9573.167.000: system.cpu.itb: Entry found with paddr 0, doing protection checks.
9573.167.000: system.cpu.itb: Translated 0x401ec0 -> 0xec0.
9573.168.000: system.cpu.itb: Translating vaddr 0x401d40 at pc 0x401cae (mode == Read).
9573.168.000: system.cpu.itb: In protected mode.
9573.168.000: system.cpu.itb: Paging enabled.
9573.168.000: system.cpu.itb: Entry found with paddr 0, doing protection checks.
9573.168.000: system.cpu.itb: Translated 0x401d40 -> 0xd40.
9573.168.500: system.cpu.dtb: Translating vaddr 0x7fffffffe478 at pc 0x401cae (mode == Read).
9573.168.500: system.cpu.dtb: In protected mode.
9573.168.500: system.cpu.dtb: Paging enabled.
9573.168.500: system.cpu.dtb: Entry found with paddr 0x2e2000, doing protection checks.
9573.168.500: system.cpu.dtb: Translated 0x7fffffffe478 -> 0x2e2478.
9573.169.500: system.cpu.itb: Translating vaddr 0x401d80 at pc 0x401cae (mode == Read).
9573.169.500: system.cpu.itb: In protected mode.
9573.169.500: system.cpu.itb: Paging enabled.
9573.169.500: system.cpu.itb: Entry found with paddr 0, doing protection checks.
9573.169.500: system.cpu.itb: Translated 0x401d80 -> 0xd80.
9573.170.500: system.cpu.itb: Translating vaddr 0x401e80 at pc 0x401cae (mode == Read).
9573.170.500: system.cpu.itb: In protected mode.
9573.170.500: system.cpu.itb: Paging enabled.
9573.170.500: system.cpu.itb: Entry found with paddr 0, doing protection checks.
9573.170.500: system.cpu.itb: Translated 0x401e80 -> 0xe80.
9573.170.500: system.cpu.dtb: Translating vaddr 0x7fffffffe474 at pc 0x401cae (mode == Read).
9573.170.500: system.cpu.dtb: In protected mode.
9573.170.500: system.cpu.dtb: Paging enabled.
9573.170.500: system.cpu.dtb: Entry found with paddr 0x2e2000, doing protection checks.
9573.170.500: system.cpu.dtb: Translated 0x7fffffffe474 -> 0x2e2474.
========== Exiting @ tick 9573170500 because workbegin
0x2b
========== Exiting @ tick 9582921000 because workbegin
0x2a
9582.921.500: system.cpu.itb: Translating vaddr 0x401f80 at pc 0x401cae (mode == Read).
9582.921.500: system.cpu.itb: In protected mode.
9582.921.500: system.cpu.itb: Paging enabled.
9582.921.500: system.cpu.itb: Entry found with paddr 0, doing protection checks.
9582.921.500: system.cpu.itb: Translated 0x401f80 -> 0xf80.
9582.922.000: system.cpu.dtb: In protected mode.
9582.928.500: system.cpu.itb: Translating vaddr 0x401d40 at pc 0x401f01 (mode == Read).
9582.928.500: system.cpu.itb: In protected mode.
9582.928.500: system.cpu.itb: Paging enabled.
9582.928.500: system.cpu.itb: Entry found with paddr 0, doing protection checks.
9582.928.500: system.cpu.itb: Translated 0x401d40 -> 0xd40.
9582.929.000: system.cpu.dtb: Translating vaddr 0x7fffffffe4a8 at pc 0x401f01 (mode == Read).
9582.929.000: system.cpu.dtb: In protected mode.
9582.929.000: system.cpu.dtb: Paging enabled.
9582.929.000: system.cpu.dtb: Entry found with paddr 0x2e2000, doing protection checks.
9582.929.000: system.cpu.dtb: Translated 0x7fffffffe4a8 -> 0x2e24a8.
9582.929.000: system.cpu.dtb: Translating vaddr 0x7fffffffe488 at pc 0x401f01 (mode == Read).
9582.929.000: system.cpu.dtb: In protected mode.
9582.929.000: system.cpu.dtb: Paging enabled.
9582.929.000: system.cpu.dtb: Entry found with paddr 0x2e2000, doing protection checks.
9582.929.000: system.cpu.dtb: Translated 0x7fffffffe488 -> 0x2e2488.
9582.929.500: system.cpu.itb: Translating vaddr 0x401e80 at pc 0x401f01 (mode == Read).
9582.929.500: system.cpu.itb: In protected mode.
9582.929.500: system.cpu.itb: Paging enabled.
9582.929.500: system.cpu.itb: Entry found with paddr 0, doing protection checks.
9582.929.500: system.cpu.itb: Translated 0x401e80 -> 0xe80.
9582.930.500: system.cpu.itb: Translating vaddr 0x401ec0 at pc 0x401f06 (mode == Read).
9582.930.500: system.cpu.itb: In protected mode.
9582.930.500: system.cpu.itb: Paging enabled.
9582.930.500: system.cpu.itb: Entry found with paddr 0, doing protection checks.
9582.930.500: system.cpu.itb: Translated 0x401ec0 -> 0xec0.
9582.930.500: system.cpu.dtb: Translating vaddr 0x7fffffffe46c at pc 0x401f06 (mode == Write).
9582.930.500: system.cpu.dtb: In protected mode.
9582.930.500: system.cpu.dtb: Paging enabled.
9582.930.500: system.cpu.dtb: Entry found with paddr 0x2e2000, doing protection checks.
9582.930.500: system.cpu.dtb: Translated 0x7fffffffe46c -> 0x2e246c.
9582.931.000: system.cpu.dtb: Translating vaddr 0x4e5880 at pc 0x401f06 (mode == Read).
9582.931.000: system.cpu.dtb: In protected mode.
9582.931.000: system.cpu.dtb: Paging enabled.
9582.931.000: system.cpu.dtb: Handling a TLB miss for address 0x4e5880 at pc 0x401f06 (mode == Read).
9582.931.000: system.cpu.dtb: Mapping 0x4e5000 to 0xbb000
9582.931.000: system.cpu.dtb: Evicting address 0x5aa000.
9582.931.000: system.cpu.dtb: Miss was serviced.
9582.931.000: system.cpu.dtb: Entry found with paddr 0xbb000, doing protection checks.
9582.931.000: system.cpu.dtb: Translated 0x4e5880 -> 0xbb880.
9582.946.000: system.cpu.dtb: Translating vaddr 0x7fffffffe46c at pc 0x401f23 (mode == Write).
9582.946.000: system.cpu.dtb: In protected mode.
9582.946.000: system.cpu.dtb: Paging enabled.
9582.946.000: system.cpu.dtb: Entry found with paddr 0x2e2000, doing protection checks.
9582.946.000: system.cpu.dtb: Translated 0x7fffffffe46c -> 0x2e246c.
9582.946.500: system.cpu.dtb: Translating vaddr 0x7fffffffe4a0 at pc 0x401f23 (mode == Write).
9582.946.500: system.cpu.dtb: In protected mode.
9582.946.500: system.cpu.dtb: Paging enabled.
9582.946.500: system.cpu.dtb: Entry found with paddr 0x2e2000, doing protection checks.
9582.946.500: system.cpu.dtb: Translated 0x7fffffffe4a0 -> 0x2e24a0.
9582.952.000: system.cpu.itb: Translating vaddr 0x401d40 at pc 0x401f3a (mode == Read).
9582.952.000: system.cpu.itb: In protected mode.
9582.952.000: system.cpu.itb: Paging enabled.
9582.952.000: system.cpu.itb: Entry found with paddr 0, doing protection checks.
9582.952.000: system.cpu.itb: Translated 0x401d40 -> 0xd40.
9582.953.500: system.cpu.itb: Translating vaddr 0x401d80 at pc 0x401f3a (mode == Read).
9582.953.500: system.cpu.itb: In protected mode.
9582.953.500: system.cpu.itb: Paging enabled.
9582.953.500: system.cpu.itb: Entry found with paddr 0, doing protection checks.
9582.953.500: system.cpu.itb: Translated 0x401d80 -> 0xd80.
9582.953.500: system.cpu.dtb: Translating vaddr 0x7fffffffe4a0 at pc 0x401f3a (mode == Read).
9582.953.500: system.cpu.dtb: In protected mode.
9582.953.500: system.cpu.dtb: Paging enabled.
9582.953.500: system.cpu.dtb: Entry found with paddr 0x2e2000, doing protection checks.
9582.953.500: system.cpu.dtb: Translated 0x7fffffffe4a0 -> 0x2e24a0.
9582.953.500: system.cpu.dtb: Translating vaddr 0x7fffffffe478 at pc 0x401f3a (mode == Read).
9582.953.500: system.cpu.dtb: In protected mode.
9582.953.500: system.cpu.dtb: Paging enabled.
9582.953.500: system.cpu.dtb: Entry found with paddr 0x2e2000, doing protection checks.
9582.953.500: system.cpu.dtb: Translated 0x7fffffffe478 -> 0x2e2478.
9582.954.000: system.cpu.dtb: Translating vaddr 0x7fffffffe478 at pc 0x401f3a (mode == Read).
9582.954.000: system.cpu.dtb: In protected mode.
9582.954.000: system.cpu.dtb: Paging enabled.
9582.954.000: system.cpu.dtb: Entry found with paddr 0x2e2000, doing protection checks.
9582.954.000: system.cpu.dtb: Translated 0x7fffffffe478 -> 0x2e2478.
9582.954.500: system.cpu.itb: Translating vaddr 0x401e80 at pc 0x401f3f (mode == Read).
9582.954.500: system.cpu.itb: In protected mode.
9582.954.500: system.cpu.itb: Paging enabled.
9582.954.500: system.cpu.itb: Entry found with paddr 0, doing protection checks.
9582.954.500: system.cpu.itb: Translated 0x401e80 -> 0xe80.
9582.955.000: system.cpu.dtb: Translating vaddr 0x7fffffffe46c at pc 0x401f3f (mode == Write).
9582.955.000: system.cpu.dtb: In protected mode.
9582.955.000: system.cpu.dtb: Paging enabled.
9582.955.000: system.cpu.dtb: Entry found with paddr 0x2e2000, doing protection checks.
9582.955.000: system.cpu.dtb: Translated 0x7fffffffe46c -> 0x2e246c.
9582.955.000: system.cpu.dtb: Translating vaddr 0x7fffffffe438 at pc 0x401f3f (mode == Write).
9582.955.000: system.cpu.dtb: In protected mode.
9582.955.000: system.cpu.dtb: Paging enabled.
9582.955.000: system.cpu.dtb: Entry found with paddr 0x2e2000, doing protection checks.
9582.955.000: system.cpu.dtb: Translated 0x7fffffffe438 -> 0x2e2438.
9582.955.000: system.cpu.dtb: Translating vaddr 0x7fffffffe438 at pc 0x401f3f (mode == Read).
9582.955.000: system.cpu.dtb: In protected mode.
9582.955.000: system.cpu.dtb: Paging enabled.
9582.955.000: system.cpu.dtb: Entry found with paddr 0x2e2000, doing protection checks.
9582.955.000: system.cpu.dtb: Translated 0x7fffffffe438 -> 0x2e2438.
9582.955.000: system.cpu.dtb: Translating vaddr 0x7fffffffe478 at pc 0x401f3f (mode == Read).
9582.955.000: system.cpu.dtb: In protected mode.
9582.955.000: system.cpu.dtb: Paging enabled.
9582.955.000: system.cpu.dtb: Entry found with paddr 0x2e2000, doing protection checks.
9582.955.000: system.cpu.dtb: Translated 0x7fffffffe478 -> 0x2e2478.
9582.955.500: system.cpu.dtb: Translating vaddr 0x7fffffffe478 at pc 0x401f3f (mode == Read).
9582.955.500: system.cpu.dtb: In protected mode.
9582.955.500: system.cpu.dtb: Paging enabled.
9582.955.500: system.cpu.dtb: Entry found with paddr 0x2e2000, doing protection checks.
9582.955.500: system.cpu.dtb: Translated 0x7fffffffe478 -> 0x2e2478.
9582.956.000: system.cpu.itb: Translating vaddr 0x401ec0 at pc 0x401f46 (mode == Read).
9582.956.000: system.cpu.itb: In protected mode.
9582.956.000: system.cpu.itb: Paging enabled.
9582.956.000: system.cpu.itb: Entry found with paddr 0, doing protection checks.
9582.956.000: system.cpu.itb: Translated 0x401ec0 -> 0xec0.
9582.956.000: system.cpu.dtb: Translating vaddr 0x7fffffffe4c8 at pc 0x401f46 (mode == Read).
9582.956.000: system.cpu.dtb: In protected mode.
9582.956.000: system.cpu.dtb: Paging enabled.
9582.956.000: system.cpu.dtb: Entry found with paddr 0x2e2000, doing protection checks.
9582.956.000: system.cpu.dtb: Translated 0x7fffffffe4c8 -> 0x2e24c8.
9582.956.000: system.cpu.dtb: Translating vaddr 0x7fffffffe474 at pc 0x401f46 (mode == Write).
9582.956.000: system.cpu.dtb: In protected mode.
9582.956.000: system.cpu.dtb: Paging enabled.
9582.956.000: system.cpu.dtb: Entry found with paddr 0x2e2000, doing protection checks.
9582.956.000: system.cpu.dtb: Translated 0x7fffffffe474 -> 0x2e2474.
9582.956.000: system.cpu.dtb: Translating vaddr 0x7fffffffe474 at pc 0x401f46 (mode == Read).
9582.956.000: system.cpu.dtb: In protected mode.
9582.956.000: system.cpu.dtb: Paging enabled.
9582.956.000: system.cpu.dtb: Entry found with paddr 0x2e2000, doing protection checks.
9582.956.000: system.cpu.dtb: Translated 0x7fffffffe474 -> 0x2e2474.
9582.956.500: system.cpu.dtb: Translating vaddr 0x7fffffffe474 at pc 0x401f5b (mode == Read).
9582.956.500: system.cpu.dtb: In protected mode.
9582.956.500: system.cpu.dtb: Paging enabled.
9582.956.500: system.cpu.dtb: Entry found with paddr 0x2e2000, doing protection checks.
9582.956.500: system.cpu.dtb: Translated 0x7fffffffe474 -> 0x2e2474.
9582.957.000: system.cpu.dtb: Translating vaddr 0x7fffffffe478 at pc 0x401f5d (mode == Write).
9582.957.000: system.cpu.dtb: In protected mode.
9582.957.000: system.cpu.dtb: Paging enabled.
9582.957.000: system.cpu.dtb: Entry found with paddr 0x2e2000, doing protection checks.
9582.957.000: system.cpu.dtb: Translated 0x7fffffffe478 -> 0x2e2478.
9582.957.000: system.cpu.dtb: Translating vaddr 0x4df0f0 at pc 0x401f5d (mode == Read).
9582.957.000: system.cpu.dtb: In protected mode.
9582.957.000: system.cpu.dtb: Paging enabled.
9582.957.000: system.cpu.dtb: Entry found with paddr 0xb5000, doing protection checks.
9582.957.000: system.cpu.dtb: Translated 0x4df0f0 -> 0xb50f0.
9582.957.500: system.cpu.itb: Translating vaddr 0x401c80 at pc 0x401f5d (mode == Read).
9582.957.500: system.cpu.itb: In protected mode.
9582.957.500: system.cpu.itb: Paging enabled.
9582.957.500: system.cpu.itb: Entry found with paddr 0, doing protection checks.
9582.957.500: system.cpu.itb: Translated 0x401c80 -> 0xc80.
9582.957.500: system.cpu.dtb: Translating vaddr 0x7fffffffe47c at pc 0x401f5d (mode == Write).
9582.957.500: system.cpu.dtb: In protected mode.
9582.957.500: system.cpu.dtb: Paging enabled.
9582.957.500: system.cpu.dtb: Entry found with paddr 0x2e2000, doing protection checks.
9582.957.500: system.cpu.dtb: Translated 0x7fffffffe47c -> 0x2e247c.
9582.958.000: system.cpu.dtb: Translating vaddr 0x7fffffffe4c8 at pc 0x401f5d (mode == Write).
9582.958.000: system.cpu.dtb: In protected mode.
9582.958.000: system.cpu.dtb: Paging enabled.
9582.958.000: system.cpu.dtb: Entry found with paddr 0x2e2000, doing protection checks.
9582.958.000: system.cpu.dtb: Translated 0x7fffffffe4c8 -> 0x2e24c8.
9582.958.500: system.cpu.itb: Translating vaddr 0x401f80 at pc 0x401f5d (mode == Read).
9582.958.500: system.cpu.itb: In protected mode.
9582.958.500: system.cpu.itb: Paging enabled.
9582.958.500: system.cpu.itb: Entry found with paddr 0, doing protection checks.
9582.958.500: system.cpu.itb: Translated 0x401f80 -> 0xf80.
9582.959.500: system.cpu.itb: Translating vaddr 0x401d40 at pc 0x401f5d (mode == Read).
9582.959.500: system.cpu.itb: In protected mode.
9582.959.500: system.cpu.itb: Paging enabled.
9582.959.500: system.cpu.itb: Entry found with paddr 0, doing protection checks.
9582.959.500: system.cpu.itb: Translated 0x401d40 -> 0xd40.
9582.960.500: system.cpu.itb: Translating vaddr 0x401e80 at pc 0x401f5d (mode == Read).
9582.960.500: system.cpu.itb: In protected mode.
9582.960.500: system.cpu.itb: Paging enabled.
9582.960.500: system.cpu.itb: Entry found with paddr 0, doing protection checks.
9582.960.500: system.cpu.itb: Translated 0x401e80 -> 0xe80.
9582.961.500: system.cpu.itb: Translating vaddr 0x401ec0 at pc 0x401cae (mode == Read).
9582.961.500: system.cpu.itb: In protected mode.
9582.961.500: system.cpu.itb: Paging enabled.
9582.961.500: system.cpu.itb: Entry found with paddr 0, doing protection checks.
9582.961.500: system.cpu.itb: Translated 0x401ec0 -> 0xec0.
9582.962.500: system.cpu.itb: Translating vaddr 0x401d40 at pc 0x401cae (mode == Read).
9582.962.500: system.cpu.itb: In protected mode.
9582.962.500: system.cpu.itb: Paging enabled.
9582.962.500: system.cpu.itb: Entry found with paddr 0, doing protection checks.
9582.962.500: system.cpu.itb: Translated 0x401d40 -> 0xd40.
9582.963.000: system.cpu.dtb: Translating vaddr 0x7fffffffe478 at pc 0x401cae (mode == Read).
9582.963.000: system.cpu.dtb: In protected mode.
9582.963.000: system.cpu.dtb: Paging enabled.
9582.963.000: system.cpu.dtb: Entry found with paddr 0x2e2000, doing protection checks.
9582.963.000: system.cpu.dtb: Translated 0x7fffffffe478 -> 0x2e2478.
9582.964.000: system.cpu.itb: Translating vaddr 0x401d80 at pc 0x401cae (mode == Read).
9582.964.000: system.cpu.itb: In protected mode.
9582.964.000: system.cpu.itb: Paging enabled.
9582.964.000: system.cpu.itb: Entry found with paddr 0, doing protection checks.
9582.964.000: system.cpu.itb: Translated 0x401d80 -> 0xd80.
9582.965.000: system.cpu.itb: Translating vaddr 0x401e80 at pc 0x401cae (mode == Read).
9582.965.000: system.cpu.itb: In protected mode.
9582.965.000: system.cpu.itb: Paging enabled.
9582.965.000: system.cpu.itb: Entry found with paddr 0, doing protection checks.
9582.965.000: system.cpu.itb: Translated 0x401e80 -> 0xe80.
9582.965.000: system.cpu.dtb: Translating vaddr 0x7fffffffe474 at pc 0x401cae (mode == Read).
9582.965.000: system.cpu.dtb: In protected mode.
9582.965.000: system.cpu.dtb: Paging enabled.
9582.965.000: system.cpu.dtb: Entry found with paddr 0x2e2000, doing protection checks.
9582.965.000: system.cpu.dtb: Translated 0x7fffffffe474 -> 0x2e2474.
========== Exiting @ tick 9582965000 because workbegin
0x2b
========== Exiting @ tick 9592691000 because workbegin
0x2a
9592.692.000: system.cpu.dtb: In protected mode.
9592.692.000: system.cpu.dtb: In protected mode.
9592.698.500: system.cpu.itb: Translating vaddr 0x401d40 at pc 0x401f01 (mode == Read).
9592.698.500: system.cpu.itb: In protected mode.
9592.698.500: system.cpu.itb: Paging enabled.
9592.698.500: system.cpu.itb: Entry found with paddr 0, doing protection checks.
9592.698.500: system.cpu.itb: Translated 0x401d40 -> 0xd40.
9592.699.000: system.cpu.dtb: Translating vaddr 0x7fffffffe4a8 at pc 0x401f01 (mode == Read).
9592.699.000: system.cpu.dtb: In protected mode.
9592.699.000: system.cpu.dtb: Paging enabled.
9592.699.000: system.cpu.dtb: Entry found with paddr 0x2e2000, doing protection checks.
9592.699.000: system.cpu.dtb: Translated 0x7fffffffe4a8 -> 0x2e24a8.
9592.699.000: system.cpu.dtb: Translating vaddr 0x7fffffffe488 at pc 0x401f01 (mode == Read).
9592.699.000: system.cpu.dtb: In protected mode.
9592.699.000: system.cpu.dtb: Paging enabled.
9592.699.000: system.cpu.dtb: Entry found with paddr 0x2e2000, doing protection checks.
9592.699.000: system.cpu.dtb: Translated 0x7fffffffe488 -> 0x2e2488.
9592.699.500: system.cpu.itb: Translating vaddr 0x401e80 at pc 0x401f01 (mode == Read).
9592.699.500: system.cpu.itb: In protected mode.
9592.699.500: system.cpu.itb: Paging enabled.
9592.699.500: system.cpu.itb: Entry found with paddr 0, doing protection checks.
9592.699.500: system.cpu.itb: Translated 0x401e80 -> 0xe80.
9592.700.500: system.cpu.itb: Translating vaddr 0x401ec0 at pc 0x401f06 (mode == Read).
9592.700.500: system.cpu.itb: In protected mode.
9592.700.500: system.cpu.itb: Paging enabled.
9592.700.500: system.cpu.itb: Entry found with paddr 0, doing protection checks.
9592.700.500: system.cpu.itb: Translated 0x401ec0 -> 0xec0.
9592.700.500: system.cpu.dtb: Translating vaddr 0x7fffffffe46c at pc 0x401f06 (mode == Write).
9592.700.500: system.cpu.dtb: In protected mode.
9592.700.500: system.cpu.dtb: Paging enabled.
9592.700.500: system.cpu.dtb: Entry found with paddr 0x2e2000, doing protection checks.
9592.700.500: system.cpu.dtb: Translated 0x7fffffffe46c -> 0x2e246c.
9592.701.000: system.cpu.dtb: Translating vaddr 0x4e6880 at pc 0x401f06 (mode == Read).
9592.701.000: system.cpu.dtb: In protected mode.
9592.701.000: system.cpu.dtb: Paging enabled.
9592.701.000: system.cpu.dtb: Handling a TLB miss for address 0x4e6880 at pc 0x401f06 (mode == Read).
9592.701.000: system.cpu.dtb: Mapping 0x4e6000 to 0xbc000
9592.701.000: system.cpu.dtb: Evicting address 0x5ab000.
9592.701.000: system.cpu.dtb: Miss was serviced.
9592.701.000: system.cpu.dtb: Entry found with paddr 0xbc000, doing protection checks.
9592.701.000: system.cpu.dtb: Translated 0x4e6880 -> 0xbc880.
9592.716.000: system.cpu.dtb: Translating vaddr 0x7fffffffe46c at pc 0x401f23 (mode == Write).
9592.716.000: system.cpu.dtb: In protected mode.
9592.716.000: system.cpu.dtb: Paging enabled.
9592.716.000: system.cpu.dtb: Entry found with paddr 0x2e2000, doing protection checks.
9592.716.000: system.cpu.dtb: Translated 0x7fffffffe46c -> 0x2e246c.
9592.716.500: system.cpu.dtb: Translating vaddr 0x7fffffffe4a0 at pc 0x401f23 (mode == Write).
9592.716.500: system.cpu.dtb: In protected mode.
9592.716.500: system.cpu.dtb: Paging enabled.
9592.716.500: system.cpu.dtb: Entry found with paddr 0x2e2000, doing protection checks.
9592.716.500: system.cpu.dtb: Translated 0x7fffffffe4a0 -> 0x2e24a0.
9592.722.000: system.cpu.itb: Translating vaddr 0x401d40 at pc 0x401f3a (mode == Read).
9592.722.000: system.cpu.itb: In protected mode.
9592.722.000: system.cpu.itb: Paging enabled.
9592.722.000: system.cpu.itb: Entry found with paddr 0, doing protection checks.
9592.722.000: system.cpu.itb: Translated 0x401d40 -> 0xd40.
9592.723.500: system.cpu.itb: Translating vaddr 0x401d80 at pc 0x401f3a (mode == Read).
9592.723.500: system.cpu.itb: In protected mode.
9592.723.500: system.cpu.itb: Paging enabled.
9592.723.500: system.cpu.itb: Entry found with paddr 0, doing protection checks.
9592.723.500: system.cpu.itb: Translated 0x401d80 -> 0xd80.
9592.723.500: system.cpu.dtb: Translating vaddr 0x7fffffffe4a0 at pc 0x401f3a (mode == Read).
9592.723.500: system.cpu.dtb: In protected mode.
9592.723.500: system.cpu.dtb: Paging enabled.
9592.723.500: system.cpu.dtb: Entry found with paddr 0x2e2000, doing protection checks.
9592.723.500: system.cpu.dtb: Translated 0x7fffffffe4a0 -> 0x2e24a0.
9592.723.500: system.cpu.dtb: Translating vaddr 0x7fffffffe478 at pc 0x401f3a (mode == Read).
9592.723.500: system.cpu.dtb: In protected mode.
9592.723.500: system.cpu.dtb: Paging enabled.
9592.723.500: system.cpu.dtb: Entry found with paddr 0x2e2000, doing protection checks.
9592.723.500: system.cpu.dtb: Translated 0x7fffffffe478 -> 0x2e2478.
9592.724.000: system.cpu.dtb: Translating vaddr 0x7fffffffe478 at pc 0x401f3a (mode == Read).
9592.724.000: system.cpu.dtb: In protected mode.
9592.724.000: system.cpu.dtb: Paging enabled.
9592.724.000: system.cpu.dtb: Entry found with paddr 0x2e2000, doing protection checks.
9592.724.000: system.cpu.dtb: Translated 0x7fffffffe478 -> 0x2e2478.
9592.724.500: system.cpu.itb: Translating vaddr 0x401e80 at pc 0x401f3f (mode == Read).
9592.724.500: system.cpu.itb: In protected mode.
9592.724.500: system.cpu.itb: Paging enabled.
9592.724.500: system.cpu.itb: Entry found with paddr 0, doing protection checks.
9592.724.500: system.cpu.itb: Translated 0x401e80 -> 0xe80.
9592.725.000: system.cpu.dtb: Translating vaddr 0x7fffffffe46c at pc 0x401f3f (mode == Write).
9592.725.000: system.cpu.dtb: In protected mode.
9592.725.000: system.cpu.dtb: Paging enabled.
9592.725.000: system.cpu.dtb: Entry found with paddr 0x2e2000, doing protection checks.
9592.725.000: system.cpu.dtb: Translated 0x7fffffffe46c -> 0x2e246c.
9592.725.000: system.cpu.dtb: Translating vaddr 0x7fffffffe438 at pc 0x401f3f (mode == Write).
9592.725.000: system.cpu.dtb: In protected mode.
9592.725.000: system.cpu.dtb: Paging enabled.
9592.725.000: system.cpu.dtb: Entry found with paddr 0x2e2000, doing protection checks.
9592.725.000: system.cpu.dtb: Translated 0x7fffffffe438 -> 0x2e2438.
9592.725.000: system.cpu.dtb: Translating vaddr 0x7fffffffe438 at pc 0x401f3f (mode == Read).
9592.725.000: system.cpu.dtb: In protected mode.
9592.725.000: system.cpu.dtb: Paging enabled.
9592.725.000: system.cpu.dtb: Entry found with paddr 0x2e2000, doing protection checks.
9592.725.000: system.cpu.dtb: Translated 0x7fffffffe438 -> 0x2e2438.
9592.725.000: system.cpu.dtb: Translating vaddr 0x7fffffffe478 at pc 0x401f3f (mode == Read).
9592.725.000: system.cpu.dtb: In protected mode.
9592.725.000: system.cpu.dtb: Paging enabled.
9592.725.000: system.cpu.dtb: Entry found with paddr 0x2e2000, doing protection checks.
9592.725.000: system.cpu.dtb: Translated 0x7fffffffe478 -> 0x2e2478.
9592.725.500: system.cpu.dtb: Translating vaddr 0x7fffffffe478 at pc 0x401f3f (mode == Read).
9592.725.500: system.cpu.dtb: In protected mode.
9592.725.500: system.cpu.dtb: Paging enabled.
9592.725.500: system.cpu.dtb: Entry found with paddr 0x2e2000, doing protection checks.
9592.725.500: system.cpu.dtb: Translated 0x7fffffffe478 -> 0x2e2478.
9592.726.000: system.cpu.itb: Translating vaddr 0x401ec0 at pc 0x401f46 (mode == Read).
9592.726.000: system.cpu.itb: In protected mode.
9592.726.000: system.cpu.itb: Paging enabled.
9592.726.000: system.cpu.itb: Entry found with paddr 0, doing protection checks.
9592.726.000: system.cpu.itb: Translated 0x401ec0 -> 0xec0.
9592.726.000: system.cpu.dtb: Translating vaddr 0x7fffffffe4d0 at pc 0x401f46 (mode == Read).
9592.726.000: system.cpu.dtb: In protected mode.
9592.726.000: system.cpu.dtb: Paging enabled.
9592.726.000: system.cpu.dtb: Entry found with paddr 0x2e2000, doing protection checks.
9592.726.000: system.cpu.dtb: Translated 0x7fffffffe4d0 -> 0x2e24d0.
9592.726.000: system.cpu.dtb: Translating vaddr 0x7fffffffe474 at pc 0x401f46 (mode == Write).
9592.726.000: system.cpu.dtb: In protected mode.
9592.726.000: system.cpu.dtb: Paging enabled.
9592.726.000: system.cpu.dtb: Entry found with paddr 0x2e2000, doing protection checks.
9592.726.000: system.cpu.dtb: Translated 0x7fffffffe474 -> 0x2e2474.
9592.726.000: system.cpu.dtb: Translating vaddr 0x7fffffffe474 at pc 0x401f46 (mode == Read).
9592.726.000: system.cpu.dtb: In protected mode.
9592.726.000: system.cpu.dtb: Paging enabled.
9592.726.000: system.cpu.dtb: Entry found with paddr 0x2e2000, doing protection checks.
9592.726.000: system.cpu.dtb: Translated 0x7fffffffe474 -> 0x2e2474.
9592.726.500: system.cpu.dtb: Translating vaddr 0x7fffffffe474 at pc 0x401f5b (mode == Read).
9592.726.500: system.cpu.dtb: In protected mode.
9592.726.500: system.cpu.dtb: Paging enabled.
9592.726.500: system.cpu.dtb: Entry found with paddr 0x2e2000, doing protection checks.
9592.726.500: system.cpu.dtb: Translated 0x7fffffffe474 -> 0x2e2474.
9592.727.000: system.cpu.dtb: Translating vaddr 0x7fffffffe478 at pc 0x401f5d (mode == Write).
9592.727.000: system.cpu.dtb: In protected mode.
9592.727.000: system.cpu.dtb: Paging enabled.
9592.727.000: system.cpu.dtb: Entry found with paddr 0x2e2000, doing protection checks.
9592.727.000: system.cpu.dtb: Translated 0x7fffffffe478 -> 0x2e2478.
9592.727.000: system.cpu.dtb: Translating vaddr 0x4df0f0 at pc 0x401f5d (mode == Read).
9592.727.000: system.cpu.dtb: In protected mode.
9592.727.000: system.cpu.dtb: Paging enabled.
9592.727.000: system.cpu.dtb: Entry found with paddr 0xb5000, doing protection checks.
9592.727.000: system.cpu.dtb: Translated 0x4df0f0 -> 0xb50f0.
9592.727.500: system.cpu.dtb: Translating vaddr 0x7fffffffe47c at pc 0x401f5d (mode == Write).
9592.727.500: system.cpu.dtb: In protected mode.
9592.727.500: system.cpu.dtb: Paging enabled.
9592.727.500: system.cpu.dtb: Entry found with paddr 0x2e2000, doing protection checks.
9592.727.500: system.cpu.dtb: Translated 0x7fffffffe47c -> 0x2e247c.
9592.728.000: system.cpu.dtb: Translating vaddr 0x7fffffffe4d0 at pc 0x401f5d (mode == Write).
9592.728.000: system.cpu.dtb: In protected mode.
9592.728.000: system.cpu.dtb: Paging enabled.
9592.728.000: system.cpu.dtb: Entry found with paddr 0x2e2000, doing protection checks.
9592.728.000: system.cpu.dtb: Translated 0x7fffffffe4d0 -> 0x2e24d0.
9592.728.500: system.cpu.itb: Translating vaddr 0x401f80 at pc 0x401f5d (mode == Read).
9592.728.500: system.cpu.itb: In protected mode.
9592.728.500: system.cpu.itb: Paging enabled.
9592.728.500: system.cpu.itb: Entry found with paddr 0, doing protection checks.
9592.728.500: system.cpu.itb: Translated 0x401f80 -> 0xf80.
9592.729.500: system.cpu.itb: Translating vaddr 0x401d40 at pc 0x401f5d (mode == Read).
9592.729.500: system.cpu.itb: In protected mode.
9592.729.500: system.cpu.itb: Paging enabled.
9592.729.500: system.cpu.itb: Entry found with paddr 0, doing protection checks.
9592.729.500: system.cpu.itb: Translated 0x401d40 -> 0xd40.
9592.730.500: system.cpu.itb: Translating vaddr 0x401e80 at pc 0x401f5d (mode == Read).
9592.730.500: system.cpu.itb: In protected mode.
9592.730.500: system.cpu.itb: Paging enabled.
9592.730.500: system.cpu.itb: Entry found with paddr 0, doing protection checks.
9592.730.500: system.cpu.itb: Translated 0x401e80 -> 0xe80.
9592.730.500: system.cpu.dtb: In protected mode.
9592.731.500: system.cpu.itb: Translating vaddr 0x401ec0 at pc 0x401cae (mode == Read).
9592.731.500: system.cpu.itb: In protected mode.
9592.731.500: system.cpu.itb: Paging enabled.
9592.731.500: system.cpu.itb: Entry found with paddr 0, doing protection checks.
9592.731.500: system.cpu.itb: Translated 0x401ec0 -> 0xec0.
9592.732.500: system.cpu.itb: Translating vaddr 0x401d40 at pc 0x401cae (mode == Read).
9592.732.500: system.cpu.itb: In protected mode.
9592.732.500: system.cpu.itb: Paging enabled.
9592.732.500: system.cpu.itb: Entry found with paddr 0, doing protection checks.
9592.732.500: system.cpu.itb: Translated 0x401d40 -> 0xd40.
9592.733.000: system.cpu.dtb: Translating vaddr 0x7fffffffe478 at pc 0x401cae (mode == Read).
9592.733.000: system.cpu.dtb: In protected mode.
9592.733.000: system.cpu.dtb: Paging enabled.
9592.733.000: system.cpu.dtb: Entry found with paddr 0x2e2000, doing protection checks.
9592.733.000: system.cpu.dtb: Translated 0x7fffffffe478 -> 0x2e2478.
9592.734.000: system.cpu.itb: Translating vaddr 0x401d80 at pc 0x401cae (mode == Read).
9592.734.000: system.cpu.itb: In protected mode.
9592.734.000: system.cpu.itb: Paging enabled.
9592.734.000: system.cpu.itb: Entry found with paddr 0, doing protection checks.
9592.734.000: system.cpu.itb: Translated 0x401d80 -> 0xd80.
9592.735.000: system.cpu.itb: Translating vaddr 0x401e80 at pc 0x401cae (mode == Read).
9592.735.000: system.cpu.itb: In protected mode.
9592.735.000: system.cpu.itb: Paging enabled.
9592.735.000: system.cpu.itb: Entry found with paddr 0, doing protection checks.
9592.735.000: system.cpu.itb: Translated 0x401e80 -> 0xe80.
9592.735.000: system.cpu.dtb: Translating vaddr 0x7fffffffe474 at pc 0x401cae (mode == Read).
9592.735.000: system.cpu.dtb: In protected mode.
9592.735.000: system.cpu.dtb: Paging enabled.
9592.735.000: system.cpu.dtb: Entry found with paddr 0x2e2000, doing protection checks.
9592.735.000: system.cpu.dtb: Translated 0x7fffffffe474 -> 0x2e2474.
========== Exiting @ tick 9592735000 because workbegin
0x2b
========== Exiting @ tick 9602498500 because workbegin
0x2a
9602.499.500: system.cpu.dtb: In protected mode.
9602.499.500: system.cpu.dtb: In protected mode.
9602.506.000: system.cpu.itb: Translating vaddr 0x401d40 at pc 0x401f01 (mode == Read).
9602.506.000: system.cpu.itb: In protected mode.
9602.506.000: system.cpu.itb: Paging enabled.
9602.506.000: system.cpu.itb: Entry found with paddr 0, doing protection checks.
9602.506.000: system.cpu.itb: Translated 0x401d40 -> 0xd40.
9602.506.500: system.cpu.dtb: Translating vaddr 0x7fffffffe4a8 at pc 0x401f01 (mode == Read).
9602.506.500: system.cpu.dtb: In protected mode.
9602.506.500: system.cpu.dtb: Paging enabled.
9602.506.500: system.cpu.dtb: Entry found with paddr 0x2e2000, doing protection checks.
9602.506.500: system.cpu.dtb: Translated 0x7fffffffe4a8 -> 0x2e24a8.
9602.506.500: system.cpu.dtb: Translating vaddr 0x7fffffffe488 at pc 0x401f01 (mode == Read).
9602.506.500: system.cpu.dtb: In protected mode.
9602.506.500: system.cpu.dtb: Paging enabled.
9602.506.500: system.cpu.dtb: Entry found with paddr 0x2e2000, doing protection checks.
9602.506.500: system.cpu.dtb: Translated 0x7fffffffe488 -> 0x2e2488.
9602.507.000: system.cpu.itb: Translating vaddr 0x401e80 at pc 0x401f01 (mode == Read).
9602.507.000: system.cpu.itb: In protected mode.
9602.507.000: system.cpu.itb: Paging enabled.
9602.507.000: system.cpu.itb: Entry found with paddr 0, doing protection checks.
9602.507.000: system.cpu.itb: Translated 0x401e80 -> 0xe80.
9602.508.000: system.cpu.itb: Translating vaddr 0x401ec0 at pc 0x401f06 (mode == Read).
9602.508.000: system.cpu.itb: In protected mode.
9602.508.000: system.cpu.itb: Paging enabled.
9602.508.000: system.cpu.itb: Entry found with paddr 0, doing protection checks.
9602.508.000: system.cpu.itb: Translated 0x401ec0 -> 0xec0.
9602.508.000: system.cpu.dtb: Translating vaddr 0x7fffffffe46c at pc 0x401f06 (mode == Write).
9602.508.000: system.cpu.dtb: In protected mode.
9602.508.000: system.cpu.dtb: Paging enabled.
9602.508.000: system.cpu.dtb: Entry found with paddr 0x2e2000, doing protection checks.
9602.508.000: system.cpu.dtb: Translated 0x7fffffffe46c -> 0x2e246c.
9602.508.500: system.cpu.dtb: Translating vaddr 0x4e7880 at pc 0x401f06 (mode == Read).
9602.508.500: system.cpu.dtb: In protected mode.
9602.508.500: system.cpu.dtb: Paging enabled.
9602.508.500: system.cpu.dtb: Handling a TLB miss for address 0x4e7880 at pc 0x401f06 (mode == Read).
9602.508.500: system.cpu.dtb: Mapping 0x4e7000 to 0xbd000
9602.508.500: system.cpu.dtb: Evicting address 0x5ac000.
9602.508.500: system.cpu.dtb: Miss was serviced.
9602.508.500: system.cpu.dtb: Entry found with paddr 0xbd000, doing protection checks.
9602.508.500: system.cpu.dtb: Translated 0x4e7880 -> 0xbd880.
9602.523.500: system.cpu.dtb: Translating vaddr 0x7fffffffe46c at pc 0x401f23 (mode == Write).
9602.523.500: system.cpu.dtb: In protected mode.
9602.523.500: system.cpu.dtb: Paging enabled.
9602.523.500: system.cpu.dtb: Entry found with paddr 0x2e2000, doing protection checks.
9602.523.500: system.cpu.dtb: Translated 0x7fffffffe46c -> 0x2e246c.
9602.524.000: system.cpu.dtb: Translating vaddr 0x7fffffffe4a0 at pc 0x401f23 (mode == Write).
9602.524.000: system.cpu.dtb: In protected mode.
9602.524.000: system.cpu.dtb: Paging enabled.
9602.524.000: system.cpu.dtb: Entry found with paddr 0x2e2000, doing protection checks.
9602.524.000: system.cpu.dtb: Translated 0x7fffffffe4a0 -> 0x2e24a0.
9602.529.500: system.cpu.itb: Translating vaddr 0x401d40 at pc 0x401f3a (mode == Read).
9602.529.500: system.cpu.itb: In protected mode.
9602.529.500: system.cpu.itb: Paging enabled.
9602.529.500: system.cpu.itb: Entry found with paddr 0, doing protection checks.
9602.529.500: system.cpu.itb: Translated 0x401d40 -> 0xd40.
9602.531.000: system.cpu.itb: Translating vaddr 0x401d80 at pc 0x401f3a (mode == Read).
9602.531.000: system.cpu.itb: In protected mode.
9602.531.000: system.cpu.itb: Paging enabled.
9602.531.000: system.cpu.itb: Entry found with paddr 0, doing protection checks.
9602.531.000: system.cpu.itb: Translated 0x401d80 -> 0xd80.
9602.531.000: system.cpu.dtb: Translating vaddr 0x7fffffffe4a0 at pc 0x401f3a (mode == Read).
9602.531.000: system.cpu.dtb: In protected mode.
9602.531.000: system.cpu.dtb: Paging enabled.
9602.531.000: system.cpu.dtb: Entry found with paddr 0x2e2000, doing protection checks.
9602.531.000: system.cpu.dtb: Translated 0x7fffffffe4a0 -> 0x2e24a0.
9602.531.000: system.cpu.dtb: Translating vaddr 0x7fffffffe478 at pc 0x401f3a (mode == Read).
9602.531.000: system.cpu.dtb: In protected mode.
9602.531.000: system.cpu.dtb: Paging enabled.
9602.531.000: system.cpu.dtb: Entry found with paddr 0x2e2000, doing protection checks.
9602.531.000: system.cpu.dtb: Translated 0x7fffffffe478 -> 0x2e2478.
9602.531.500: system.cpu.dtb: Translating vaddr 0x7fffffffe478 at pc 0x401f3a (mode == Read).
9602.531.500: system.cpu.dtb: In protected mode.
9602.531.500: system.cpu.dtb: Paging enabled.
9602.531.500: system.cpu.dtb: Entry found with paddr 0x2e2000, doing protection checks.
9602.531.500: system.cpu.dtb: Translated 0x7fffffffe478 -> 0x2e2478.
9602.532.000: system.cpu.itb: Translating vaddr 0x401e80 at pc 0x401f3f (mode == Read).
9602.532.000: system.cpu.itb: In protected mode.
9602.532.000: system.cpu.itb: Paging enabled.
9602.532.000: system.cpu.itb: Entry found with paddr 0, doing protection checks.
9602.532.000: system.cpu.itb: Translated 0x401e80 -> 0xe80.
9602.532.500: system.cpu.dtb: Translating vaddr 0x7fffffffe46c at pc 0x401f3f (mode == Write).
9602.532.500: system.cpu.dtb: In protected mode.
9602.532.500: system.cpu.dtb: Paging enabled.
9602.532.500: system.cpu.dtb: Entry found with paddr 0x2e2000, doing protection checks.
9602.532.500: system.cpu.dtb: Translated 0x7fffffffe46c -> 0x2e246c.
9602.532.500: system.cpu.dtb: Translating vaddr 0x7fffffffe438 at pc 0x401f3f (mode == Write).
9602.532.500: system.cpu.dtb: In protected mode.
9602.532.500: system.cpu.dtb: Paging enabled.
9602.532.500: system.cpu.dtb: Entry found with paddr 0x2e2000, doing protection checks.
9602.532.500: system.cpu.dtb: Translated 0x7fffffffe438 -> 0x2e2438.
9602.532.500: system.cpu.dtb: Translating vaddr 0x7fffffffe438 at pc 0x401f3f (mode == Read).
9602.532.500: system.cpu.dtb: In protected mode.
9602.532.500: system.cpu.dtb: Paging enabled.
9602.532.500: system.cpu.dtb: Entry found with paddr 0x2e2000, doing protection checks.
9602.532.500: system.cpu.dtb: Translated 0x7fffffffe438 -> 0x2e2438.
9602.532.500: system.cpu.dtb: Translating vaddr 0x7fffffffe478 at pc 0x401f3f (mode == Read).
9602.532.500: system.cpu.dtb: In protected mode.
9602.532.500: system.cpu.dtb: Paging enabled.
9602.532.500: system.cpu.dtb: Entry found with paddr 0x2e2000, doing protection checks.
9602.532.500: system.cpu.dtb: Translated 0x7fffffffe478 -> 0x2e2478.
9602.533.000: system.cpu.dtb: Translating vaddr 0x7fffffffe478 at pc 0x401f3f (mode == Read).
9602.533.000: system.cpu.dtb: In protected mode.
9602.533.000: system.cpu.dtb: Paging enabled.
9602.533.000: system.cpu.dtb: Entry found with paddr 0x2e2000, doing protection checks.
9602.533.000: system.cpu.dtb: Translated 0x7fffffffe478 -> 0x2e2478.
9602.533.500: system.cpu.itb: Translating vaddr 0x401ec0 at pc 0x401f46 (mode == Read).
9602.533.500: system.cpu.itb: In protected mode.
9602.533.500: system.cpu.itb: Paging enabled.
9602.533.500: system.cpu.itb: Entry found with paddr 0, doing protection checks.
9602.533.500: system.cpu.itb: Translated 0x401ec0 -> 0xec0.
9602.533.500: system.cpu.dtb: Translating vaddr 0x7fffffffe4d8 at pc 0x401f46 (mode == Read).
9602.533.500: system.cpu.dtb: In protected mode.
9602.533.500: system.cpu.dtb: Paging enabled.
9602.533.500: system.cpu.dtb: Entry found with paddr 0x2e2000, doing protection checks.
9602.533.500: system.cpu.dtb: Translated 0x7fffffffe4d8 -> 0x2e24d8.
9602.533.500: system.cpu.dtb: Translating vaddr 0x7fffffffe474 at pc 0x401f46 (mode == Write).
9602.533.500: system.cpu.dtb: In protected mode.
9602.533.500: system.cpu.dtb: Paging enabled.
9602.533.500: system.cpu.dtb: Entry found with paddr 0x2e2000, doing protection checks.
9602.533.500: system.cpu.dtb: Translated 0x7fffffffe474 -> 0x2e2474.
9602.533.500: system.cpu.dtb: Translating vaddr 0x7fffffffe474 at pc 0x401f46 (mode == Read).
9602.533.500: system.cpu.dtb: In protected mode.
9602.533.500: system.cpu.dtb: Paging enabled.
9602.533.500: system.cpu.dtb: Entry found with paddr 0x2e2000, doing protection checks.
9602.533.500: system.cpu.dtb: Translated 0x7fffffffe474 -> 0x2e2474.
9602.534.000: system.cpu.dtb: Translating vaddr 0x7fffffffe474 at pc 0x401f5b (mode == Read).
9602.534.000: system.cpu.dtb: In protected mode.
9602.534.000: system.cpu.dtb: Paging enabled.
9602.534.000: system.cpu.dtb: Entry found with paddr 0x2e2000, doing protection checks.
9602.534.000: system.cpu.dtb: Translated 0x7fffffffe474 -> 0x2e2474.
9602.534.500: system.cpu.dtb: Translating vaddr 0x7fffffffe478 at pc 0x401f5d (mode == Write).
9602.534.500: system.cpu.dtb: In protected mode.
9602.534.500: system.cpu.dtb: Paging enabled.
9602.534.500: system.cpu.dtb: Entry found with paddr 0x2e2000, doing protection checks.
9602.534.500: system.cpu.dtb: Translated 0x7fffffffe478 -> 0x2e2478.
9602.534.500: system.cpu.dtb: Translating vaddr 0x4df0f0 at pc 0x401f5d (mode == Read).
9602.534.500: system.cpu.dtb: In protected mode.
9602.534.500: system.cpu.dtb: Paging enabled.
9602.534.500: system.cpu.dtb: Entry found with paddr 0xb5000, doing protection checks.
9602.534.500: system.cpu.dtb: Translated 0x4df0f0 -> 0xb50f0.
9602.535.000: system.cpu.dtb: Translating vaddr 0x7fffffffe47c at pc 0x401f5d (mode == Write).
9602.535.000: system.cpu.dtb: In protected mode.
9602.535.000: system.cpu.dtb: Paging enabled.
9602.535.000: system.cpu.dtb: Entry found with paddr 0x2e2000, doing protection checks.
9602.535.000: system.cpu.dtb: Translated 0x7fffffffe47c -> 0x2e247c.
9602.535.500: system.cpu.dtb: Translating vaddr 0x7fffffffe4d8 at pc 0x401f5d (mode == Write).
9602.535.500: system.cpu.dtb: In protected mode.
9602.535.500: system.cpu.dtb: Paging enabled.
9602.535.500: system.cpu.dtb: Entry found with paddr 0x2e2000, doing protection checks.
9602.535.500: system.cpu.dtb: Translated 0x7fffffffe4d8 -> 0x2e24d8.
9602.536.000: system.cpu.itb: Translating vaddr 0x401f80 at pc 0x401f5d (mode == Read).
9602.536.000: system.cpu.itb: In protected mode.
9602.536.000: system.cpu.itb: Paging enabled.
9602.536.000: system.cpu.itb: Entry found with paddr 0, doing protection checks.
9602.536.000: system.cpu.itb: Translated 0x401f80 -> 0xf80.
9602.537.000: system.cpu.itb: Translating vaddr 0x401d40 at pc 0x401f5d (mode == Read).
9602.537.000: system.cpu.itb: In protected mode.
9602.537.000: system.cpu.itb: Paging enabled.
9602.537.000: system.cpu.itb: Entry found with paddr 0, doing protection checks.
9602.537.000: system.cpu.itb: Translated 0x401d40 -> 0xd40.
9602.538.000: system.cpu.itb: Translating vaddr 0x401e80 at pc 0x401f5d (mode == Read).
9602.538.000: system.cpu.itb: In protected mode.
9602.538.000: system.cpu.itb: Paging enabled.
9602.538.000: system.cpu.itb: Entry found with paddr 0, doing protection checks.
9602.538.000: system.cpu.itb: Translated 0x401e80 -> 0xe80.
9602.539.000: system.cpu.itb: Translating vaddr 0x401ec0 at pc 0x401cae (mode == Read).
9602.539.000: system.cpu.itb: In protected mode.
9602.539.000: system.cpu.itb: Paging enabled.
9602.539.000: system.cpu.itb: Entry found with paddr 0, doing protection checks.
9602.539.000: system.cpu.itb: Translated 0x401ec0 -> 0xec0.
9602.540.000: system.cpu.itb: Translating vaddr 0x401d40 at pc 0x401cae (mode == Read).
9602.540.000: system.cpu.itb: In protected mode.
9602.540.000: system.cpu.itb: Paging enabled.
9602.540.000: system.cpu.itb: Entry found with paddr 0, doing protection checks.
9602.540.000: system.cpu.itb: Translated 0x401d40 -> 0xd40.
9602.540.500: system.cpu.dtb: Translating vaddr 0x7fffffffe478 at pc 0x401cae (mode == Read).
9602.540.500: system.cpu.dtb: In protected mode.
9602.540.500: system.cpu.dtb: Paging enabled.
9602.540.500: system.cpu.dtb: Entry found with paddr 0x2e2000, doing protection checks.
9602.540.500: system.cpu.dtb: Translated 0x7fffffffe478 -> 0x2e2478.
9602.541.500: system.cpu.itb: Translating vaddr 0x401d80 at pc 0x401cae (mode == Read).
9602.541.500: system.cpu.itb: In protected mode.
9602.541.500: system.cpu.itb: Paging enabled.
9602.541.500: system.cpu.itb: Entry found with paddr 0, doing protection checks.
9602.541.500: system.cpu.itb: Translated 0x401d80 -> 0xd80.
9602.542.500: system.cpu.itb: Translating vaddr 0x401e80 at pc 0x401cae (mode == Read).
9602.542.500: system.cpu.itb: In protected mode.
9602.542.500: system.cpu.itb: Paging enabled.
9602.542.500: system.cpu.itb: Entry found with paddr 0, doing protection checks.
9602.542.500: system.cpu.itb: Translated 0x401e80 -> 0xe80.
9602.542.500: system.cpu.dtb: Translating vaddr 0x7fffffffe474 at pc 0x401cae (mode == Read).
9602.542.500: system.cpu.dtb: In protected mode.
9602.542.500: system.cpu.dtb: Paging enabled.
9602.542.500: system.cpu.dtb: Entry found with paddr 0x2e2000, doing protection checks.
9602.542.500: system.cpu.dtb: Translated 0x7fffffffe474 -> 0x2e2474.
========== Exiting @ tick 9602542500 because workbegin
0x2b
========== Exiting @ tick 9612321000 because workbegin
0x2a
9612.322.000: system.cpu.dtb: In protected mode.
9612.322.000: system.cpu.dtb: In protected mode.
9612.328.500: system.cpu.itb: Translating vaddr 0x401d40 at pc 0x401f01 (mode == Read).
9612.328.500: system.cpu.itb: In protected mode.
9612.328.500: system.cpu.itb: Paging enabled.
9612.328.500: system.cpu.itb: Entry found with paddr 0, doing protection checks.
9612.328.500: system.cpu.itb: Translated 0x401d40 -> 0xd40.
9612.329.000: system.cpu.dtb: Translating vaddr 0x7fffffffe4a8 at pc 0x401f01 (mode == Read).
9612.329.000: system.cpu.dtb: In protected mode.
9612.329.000: system.cpu.dtb: Paging enabled.
9612.329.000: system.cpu.dtb: Entry found with paddr 0x2e2000, doing protection checks.
9612.329.000: system.cpu.dtb: Translated 0x7fffffffe4a8 -> 0x2e24a8.
9612.329.000: system.cpu.dtb: Translating vaddr 0x7fffffffe488 at pc 0x401f01 (mode == Read).
9612.329.000: system.cpu.dtb: In protected mode.
9612.329.000: system.cpu.dtb: Paging enabled.
9612.329.000: system.cpu.dtb: Entry found with paddr 0x2e2000, doing protection checks.
9612.329.000: system.cpu.dtb: Translated 0x7fffffffe488 -> 0x2e2488.
[...]
12051.516.000: system.cpu.dtb: Translating vaddr 0x7fffffffe46c at pc 0x401f23 (mode == Write).
12051.516.000: system.cpu.dtb: In protected mode.
12051.516.000: system.cpu.dtb: Paging enabled.
12051.516.000: system.cpu.dtb: Entry found with paddr 0x2e2000, doing protection checks.
12051.516.000: system.cpu.dtb: Translated 0x7fffffffe46c -> 0x2e246c.
12051.516.500: system.cpu.dtb: Translating vaddr 0x7fffffffe4a0 at pc 0x401f23 (mode == Write).
12051.516.500: system.cpu.dtb: In protected mode.
12051.516.500: system.cpu.dtb: Paging enabled.
12051.516.500: system.cpu.dtb: Entry found with paddr 0x2e2000, doing protection checks.
12051.516.500: system.cpu.dtb: Translated 0x7fffffffe4a0 -> 0x2e24a0.
12051.522.000: system.cpu.itb: Translating vaddr 0x401d40 at pc 0x401f3a (mode == Read).
12051.522.000: system.cpu.itb: In protected mode.
12051.522.000: system.cpu.itb: Paging enabled.
12051.522.000: system.cpu.itb: Entry found with paddr 0, doing protection checks.
12051.522.000: system.cpu.itb: Translated 0x401d40 -> 0xd40.
12051.523.500: system.cpu.itb: Translating vaddr 0x401d80 at pc 0x401f3a (mode == Read).
12051.523.500: system.cpu.itb: In protected mode.
12051.523.500: system.cpu.itb: Paging enabled.
12051.523.500: system.cpu.itb: Entry found with paddr 0, doing protection checks.
12051.523.500: system.cpu.itb: Translated 0x401d80 -> 0xd80.
12051.523.500: system.cpu.dtb: Translating vaddr 0x7fffffffe4a0 at pc 0x401f3a (mode == Read).
12051.523.500: system.cpu.dtb: In protected mode.
12051.523.500: system.cpu.dtb: Paging enabled.
12051.523.500: system.cpu.dtb: Entry found with paddr 0x2e2000, doing protection checks.
12051.523.500: system.cpu.dtb: Translated 0x7fffffffe4a0 -> 0x2e24a0.
12051.523.500: system.cpu.dtb: Translating vaddr 0x7fffffffe478 at pc 0x401f3a (mode == Read).
12051.523.500: system.cpu.dtb: In protected mode.
12051.523.500: system.cpu.dtb: Paging enabled.
12051.523.500: system.cpu.dtb: Entry found with paddr 0x2e2000, doing protection checks.
12051.523.500: system.cpu.dtb: Translated 0x7fffffffe478 -> 0x2e2478.
12051.524.000: system.cpu.dtb: Translating vaddr 0x7fffffffe478 at pc 0x401f3a (mode == Read).
12051.524.000: system.cpu.dtb: In protected mode.
12051.524.000: system.cpu.dtb: Paging enabled.
12051.524.000: system.cpu.dtb: Entry found with paddr 0x2e2000, doing protection checks.
12051.524.000: system.cpu.dtb: Translated 0x7fffffffe478 -> 0x2e2478.
12051.524.500: system.cpu.itb: Translating vaddr 0x401e80 at pc 0x401f3f (mode == Read).
12051.524.500: system.cpu.itb: In protected mode.
12051.524.500: system.cpu.itb: Paging enabled.
12051.524.500: system.cpu.itb: Entry found with paddr 0, doing protection checks.
12051.524.500: system.cpu.itb: Translated 0x401e80 -> 0xe80.
12051.525.000: system.cpu.dtb: Translating vaddr 0x7fffffffe46c at pc 0x401f3f (mode == Write).
12051.525.000: system.cpu.dtb: In protected mode.
12051.525.000: system.cpu.dtb: Paging enabled.
12051.525.000: system.cpu.dtb: Entry found with paddr 0x2e2000, doing protection checks.
12051.525.000: system.cpu.dtb: Translated 0x7fffffffe46c -> 0x2e246c.
12051.525.000: system.cpu.dtb: Translating vaddr 0x7fffffffe438 at pc 0x401f3f (mode == Write).
12051.525.000: system.cpu.dtb: In protected mode.
12051.525.000: system.cpu.dtb: Paging enabled.
12051.525.000: system.cpu.dtb: Entry found with paddr 0x2e2000, doing protection checks.
12051.525.000: system.cpu.dtb: Translated 0x7fffffffe438 -> 0x2e2438.
12051.525.000: system.cpu.dtb: Translating vaddr 0x7fffffffe438 at pc 0x401f3f (mode == Read).
12051.525.000: system.cpu.dtb: In protected mode.
12051.525.000: system.cpu.dtb: Paging enabled.
12051.525.000: system.cpu.dtb: Entry found with paddr 0x2e2000, doing protection checks.
12051.525.000: system.cpu.dtb: Translated 0x7fffffffe438 -> 0x2e2438.
12051.525.000: system.cpu.dtb: Translating vaddr 0x7fffffffe478 at pc 0x401f3f (mode == Read).
12051.525.000: system.cpu.dtb: In protected mode.
12051.525.000: system.cpu.dtb: Paging enabled.
12051.525.000: system.cpu.dtb: Entry found with paddr 0x2e2000, doing protection checks.
12051.525.000: system.cpu.dtb: Translated 0x7fffffffe478 -> 0x2e2478.
12051.525.500: system.cpu.dtb: Translating vaddr 0x7fffffffe478 at pc 0x401f3f (mode == Read).
12051.525.500: system.cpu.dtb: In protected mode.
12051.525.500: system.cpu.dtb: Paging enabled.
12051.525.500: system.cpu.dtb: Entry found with paddr 0x2e2000, doing protection checks.
12051.525.500: system.cpu.dtb: Translated 0x7fffffffe478 -> 0x2e2478.
12051.526.000: system.cpu.itb: Translating vaddr 0x401ec0 at pc 0x401f46 (mode == Read).
12051.526.000: system.cpu.itb: In protected mode.
12051.526.000: system.cpu.itb: Paging enabled.
12051.526.000: system.cpu.itb: Entry found with paddr 0, doing protection checks.
12051.526.000: system.cpu.itb: Translated 0x401ec0 -> 0xec0.
12051.526.000: system.cpu.dtb: Translating vaddr 0x7fffffffeca8 at pc 0x401f46 (mode == Read).
12051.526.000: system.cpu.dtb: In protected mode.
12051.526.000: system.cpu.dtb: Paging enabled.
12051.526.000: system.cpu.dtb: Entry found with paddr 0x2e2000, doing protection checks.
12051.526.000: system.cpu.dtb: Translated 0x7fffffffeca8 -> 0x2e2ca8.
12051.526.000: system.cpu.dtb: Translating vaddr 0x7fffffffe474 at pc 0x401f46 (mode == Write).
12051.526.000: system.cpu.dtb: In protected mode.
12051.526.000: system.cpu.dtb: Paging enabled.
12051.526.000: system.cpu.dtb: Entry found with paddr 0x2e2000, doing protection checks.
12051.526.000: system.cpu.dtb: Translated 0x7fffffffe474 -> 0x2e2474.
12051.526.000: system.cpu.dtb: Translating vaddr 0x7fffffffe474 at pc 0x401f46 (mode == Read).
12051.526.000: system.cpu.dtb: In protected mode.
12051.526.000: system.cpu.dtb: Paging enabled.
12051.526.000: system.cpu.dtb: Entry found with paddr 0x2e2000, doing protection checks.
12051.526.000: system.cpu.dtb: Translated 0x7fffffffe474 -> 0x2e2474.
12051.526.500: system.cpu.dtb: Translating vaddr 0x7fffffffe474 at pc 0x401f5b (mode == Read).
12051.526.500: system.cpu.dtb: In protected mode.
12051.526.500: system.cpu.dtb: Paging enabled.
12051.526.500: system.cpu.dtb: Entry found with paddr 0x2e2000, doing protection checks.
12051.526.500: system.cpu.dtb: Translated 0x7fffffffe474 -> 0x2e2474.
12051.527.000: system.cpu.dtb: Translating vaddr 0x7fffffffe478 at pc 0x401f5d (mode == Write).
12051.527.000: system.cpu.dtb: In protected mode.
12051.527.000: system.cpu.dtb: Paging enabled.
12051.527.000: system.cpu.dtb: Entry found with paddr 0x2e2000, doing protection checks.
12051.527.000: system.cpu.dtb: Translated 0x7fffffffe478 -> 0x2e2478.
12051.527.000: system.cpu.dtb: Translating vaddr 0x4df0f0 at pc 0x401f5d (mode == Read).
12051.527.000: system.cpu.dtb: In protected mode.
12051.527.000: system.cpu.dtb: Paging enabled.
12051.527.000: system.cpu.dtb: Entry found with paddr 0xb5000, doing protection checks.
12051.527.000: system.cpu.dtb: Translated 0x4df0f0 -> 0xb50f0.
12051.527.500: system.cpu.itb: Translating vaddr 0x401c80 at pc 0x401f5d (mode == Read).
12051.527.500: system.cpu.itb: In protected mode.
12051.527.500: system.cpu.itb: Paging enabled.
12051.527.500: system.cpu.itb: Entry found with paddr 0, doing protection checks.
12051.527.500: system.cpu.itb: Translated 0x401c80 -> 0xc80.
12051.527.500: system.cpu.dtb: Translating vaddr 0x7fffffffe47c at pc 0x401f5d (mode == Write).
12051.527.500: system.cpu.dtb: In protected mode.
12051.527.500: system.cpu.dtb: Paging enabled.
12051.527.500: system.cpu.dtb: Entry found with paddr 0x2e2000, doing protection checks.
12051.527.500: system.cpu.dtb: Translated 0x7fffffffe47c -> 0x2e247c.
12051.528.000: system.cpu.dtb: Translating vaddr 0x7fffffffeca8 at pc 0x401f5d (mode == Write).
12051.528.000: system.cpu.dtb: In protected mode.
12051.528.000: system.cpu.dtb: Paging enabled.
12051.528.000: system.cpu.dtb: Entry found with paddr 0x2e2000, doing protection checks.
12051.528.000: system.cpu.dtb: Translated 0x7fffffffeca8 -> 0x2e2ca8.
12051.528.500: system.cpu.itb: Translating vaddr 0x401f80 at pc 0x401f5d (mode == Read).
12051.528.500: system.cpu.itb: In protected mode.
12051.528.500: system.cpu.itb: Paging enabled.
12051.528.500: system.cpu.itb: Entry found with paddr 0, doing protection checks.
12051.528.500: system.cpu.itb: Translated 0x401f80 -> 0xf80.
12051.529.500: system.cpu.itb: Translating vaddr 0x401d40 at pc 0x401f5d (mode == Read).
12051.529.500: system.cpu.itb: In protected mode.
12051.529.500: system.cpu.itb: Paging enabled.
12051.529.500: system.cpu.itb: Entry found with paddr 0, doing protection checks.
12051.529.500: system.cpu.itb: Translated 0x401d40 -> 0xd40.
12051.530.500: system.cpu.itb: Translating vaddr 0x401e80 at pc 0x401f5d (mode == Read).
12051.530.500: system.cpu.itb: In protected mode.
12051.530.500: system.cpu.itb: Paging enabled.
12051.530.500: system.cpu.itb: Entry found with paddr 0, doing protection checks.
12051.530.500: system.cpu.itb: Translated 0x401e80 -> 0xe80.
12051.531.500: system.cpu.itb: Translating vaddr 0x401ec0 at pc 0x401cae (mode == Read).
12051.531.500: system.cpu.itb: In protected mode.
12051.531.500: system.cpu.itb: Paging enabled.
12051.531.500: system.cpu.itb: Entry found with paddr 0, doing protection checks.
12051.531.500: system.cpu.itb: Translated 0x401ec0 -> 0xec0.
12051.532.500: system.cpu.itb: Translating vaddr 0x401d40 at pc 0x401cae (mode == Read).
12051.532.500: system.cpu.itb: In protected mode.
12051.532.500: system.cpu.itb: Paging enabled.
12051.532.500: system.cpu.itb: Entry found with paddr 0, doing protection checks.
12051.532.500: system.cpu.itb: Translated 0x401d40 -> 0xd40.
12051.533.000: system.cpu.dtb: Translating vaddr 0x7fffffffe478 at pc 0x401cae (mode == Read).
12051.533.000: system.cpu.dtb: In protected mode.
12051.533.000: system.cpu.dtb: Paging enabled.
12051.533.000: system.cpu.dtb: Entry found with paddr 0x2e2000, doing protection checks.
12051.533.000: system.cpu.dtb: Translated 0x7fffffffe478 -> 0x2e2478.
12051.534.000: system.cpu.itb: Translating vaddr 0x401d80 at pc 0x401cae (mode == Read).
12051.534.000: system.cpu.itb: In protected mode.
12051.534.000: system.cpu.itb: Paging enabled.
12051.534.000: system.cpu.itb: Entry found with paddr 0, doing protection checks.
12051.534.000: system.cpu.itb: Translated 0x401d80 -> 0xd80.
12051.535.000: system.cpu.itb: Translating vaddr 0x401e80 at pc 0x401cae (mode == Read).
12051.535.000: system.cpu.itb: In protected mode.
12051.535.000: system.cpu.itb: Paging enabled.
12051.535.000: system.cpu.itb: Entry found with paddr 0, doing protection checks.
12051.535.000: system.cpu.itb: Translated 0x401e80 -> 0xe80.
12051.535.000: system.cpu.dtb: Translating vaddr 0x7fffffffe474 at pc 0x401cae (mode == Read).
12051.535.000: system.cpu.dtb: In protected mode.
12051.535.000: system.cpu.dtb: Paging enabled.
12051.535.000: system.cpu.dtb: Entry found with paddr 0x2e2000, doing protection checks.
12051.535.000: system.cpu.dtb: Translated 0x7fffffffe474 -> 0x2e2474.
========== Exiting @ tick 12051535000 because workbegin
0x2b
array2[0 * STEP_SIZE] @ 0x4e2880
array2[1 * STEP_SIZE] @ 0x4e3880
array2[2 * STEP_SIZE] @ 0x4e4880
array2[3 * STEP_SIZE] @ 0x4e5880
array2[4 * STEP_SIZE] @ 0x4e6880
array2[5 * STEP_SIZE] @ 0x4e7880
array2[6 * STEP_SIZE] @ 0x4e8880
array2[7 * STEP_SIZE] @ 0x4e9880
array2[8 * STEP_SIZE] @ 0x4ea880
array2[9 * STEP_SIZE] @ 0x4eb880
array2[10 * STEP_SIZE] @ 0x4ec880
array2[11 * STEP_SIZE] @ 0x4ed880
array2[12 * STEP_SIZE] @ 0x4ee880
array2[13 * STEP_SIZE] @ 0x4ef880
array2[14 * STEP_SIZE] @ 0x4f0880
array2[15 * STEP_SIZE] @ 0x4f1880
array2[16 * STEP_SIZE] @ 0x4f2880
array2[17 * STEP_SIZE] @ 0x4f3880
array2[18 * STEP_SIZE] @ 0x4f4880
array2[19 * STEP_SIZE] @ 0x4f5880
array2[20 * STEP_SIZE] @ 0x4f6880
array2[21 * STEP_SIZE] @ 0x4f7880
array2[22 * STEP_SIZE] @ 0x4f8880
array2[23 * STEP_SIZE] @ 0x4f9880
array2[24 * STEP_SIZE] @ 0x4fa880
array2[25 * STEP_SIZE] @ 0x4fb880
array2[26 * STEP_SIZE] @ 0x4fc880
array2[27 * STEP_SIZE] @ 0x4fd880
array2[28 * STEP_SIZE] @ 0x4fe880
array2[29 * STEP_SIZE] @ 0x4ff880
array2[30 * STEP_SIZE] @ 0x500880
array2[31 * STEP_SIZE] @ 0x501880
array2[32 * STEP_SIZE] @ 0x502880
array2[33 * STEP_SIZE] @ 0x503880
array2[34 * STEP_SIZE] @ 0x504880
array2[35 * STEP_SIZE] @ 0x505880
array2[36 * STEP_SIZE] @ 0x506880
array2[37 * STEP_SIZE] @ 0x507880
array2[38 * STEP_SIZE] @ 0x508880
array2[39 * STEP_SIZE] @ 0x509880
array2[40 * STEP_SIZE] @ 0x50a880
array2[41 * STEP_SIZE] @ 0x50b880
array2[42 * STEP_SIZE] @ 0x50c880
array2[43 * STEP_SIZE] @ 0x50d880
array2[44 * STEP_SIZE] @ 0x50e880
array2[45 * STEP_SIZE] @ 0x50f880
array2[46 * STEP_SIZE] @ 0x510880
array2[47 * STEP_SIZE] @ 0x511880
array2[48 * STEP_SIZE] @ 0x512880
array2[49 * STEP_SIZE] @ 0x513880
array2[50 * STEP_SIZE] @ 0x514880
array2[51 * STEP_SIZE] @ 0x515880
array2[52 * STEP_SIZE] @ 0x516880
array2[53 * STEP_SIZE] @ 0x517880
array2[54 * STEP_SIZE] @ 0x518880
array2[55 * STEP_SIZE] @ 0x519880
array2[56 * STEP_SIZE] @ 0x51a880
array2[57 * STEP_SIZE] @ 0x51b880
array2[58 * STEP_SIZE] @ 0x51c880
array2[59 * STEP_SIZE] @ 0x51d880
array2[60 * STEP_SIZE] @ 0x51e880
array2[61 * STEP_SIZE] @ 0x51f880
array2[62 * STEP_SIZE] @ 0x520880
array2[63 * STEP_SIZE] @ 0x521880
array2[64 * STEP_SIZE] @ 0x522880
array2[65 * STEP_SIZE] @ 0x523880
array2[66 * STEP_SIZE] @ 0x524880
array2[67 * STEP_SIZE] @ 0x525880
array2[68 * STEP_SIZE] @ 0x526880
array2[69 * STEP_SIZE] @ 0x527880
array2[70 * STEP_SIZE] @ 0x528880
array2[71 * STEP_SIZE] @ 0x529880
array2[72 * STEP_SIZE] @ 0x52a880
array2[73 * STEP_SIZE] @ 0x52b880
array2[74 * STEP_SIZE] @ 0x52c880
array2[75 * STEP_SIZE] @ 0x52d880
array2[76 * STEP_SIZE] @ 0x52e880
array2[77 * STEP_SIZE] @ 0x52f880
array2[78 * STEP_SIZE] @ 0x530880
array2[79 * STEP_SIZE] @ 0x531880
array2[80 * STEP_SIZE] @ 0x532880
array2[81 * STEP_SIZE] @ 0x533880
array2[82 * STEP_SIZE] @ 0x534880
array2[83 * STEP_SIZE] @ 0x535880
array2[84 * STEP_SIZE] @ 0x536880
array2[85 * STEP_SIZE] @ 0x537880
array2[86 * STEP_SIZE] @ 0x538880
array2[87 * STEP_SIZE] @ 0x539880
array2[88 * STEP_SIZE] @ 0x53a880
array2[89 * STEP_SIZE] @ 0x53b880
array2[90 * STEP_SIZE] @ 0x53c880
array2[91 * STEP_SIZE] @ 0x53d880
array2[92 * STEP_SIZE] @ 0x53e880
array2[93 * STEP_SIZE] @ 0x53f880
array2[94 * STEP_SIZE] @ 0x540880
array2[95 * STEP_SIZE] @ 0x541880
array2[96 * STEP_SIZE] @ 0x542880
array2[97 * STEP_SIZE] @ 0x543880
array2[98 * STEP_SIZE] @ 0x544880
array2[99 * STEP_SIZE] @ 0x545880
array2[100 * STEP_SIZE] @ 0x546880
array2[101 * STEP_SIZE] @ 0x547880
array2[102 * STEP_SIZE] @ 0x548880
array2[103 * STEP_SIZE] @ 0x549880
array2[104 * STEP_SIZE] @ 0x54a880
array2[105 * STEP_SIZE] @ 0x54b880
array2[106 * STEP_SIZE] @ 0x54c880
array2[107 * STEP_SIZE] @ 0x54d880
array2[108 * STEP_SIZE] @ 0x54e880
array2[109 * STEP_SIZE] @ 0x54f880
array2[110 * STEP_SIZE] @ 0x550880
array2[111 * STEP_SIZE] @ 0x551880
array2[112 * STEP_SIZE] @ 0x552880
array2[113 * STEP_SIZE] @ 0x553880
array2[114 * STEP_SIZE] @ 0x554880
array2[115 * STEP_SIZE] @ 0x555880
array2[116 * STEP_SIZE] @ 0x556880
array2[117 * STEP_SIZE] @ 0x557880
array2[118 * STEP_SIZE] @ 0x558880
array2[119 * STEP_SIZE] @ 0x559880
array2[120 * STEP_SIZE] @ 0x55a880
array2[121 * STEP_SIZE] @ 0x55b880
array2[122 * STEP_SIZE] @ 0x55c880
array2[123 * STEP_SIZE] @ 0x55d880
array2[124 * STEP_SIZE] @ 0x55e880
array2[125 * STEP_SIZE] @ 0x55f880
array2[126 * STEP_SIZE] @ 0x560880
array2[127 * STEP_SIZE] @ 0x561880
array2[128 * STEP_SIZE] @ 0x562880
array2[129 * STEP_SIZE] @ 0x563880
array2[130 * STEP_SIZE] @ 0x564880
array2[131 * STEP_SIZE] @ 0x565880
array2[132 * STEP_SIZE] @ 0x566880
array2[133 * STEP_SIZE] @ 0x567880
array2[134 * STEP_SIZE] @ 0x568880
array2[135 * STEP_SIZE] @ 0x569880
array2[136 * STEP_SIZE] @ 0x56a880
array2[137 * STEP_SIZE] @ 0x56b880
array2[138 * STEP_SIZE] @ 0x56c880
array2[139 * STEP_SIZE] @ 0x56d880
array2[140 * STEP_SIZE] @ 0x56e880
array2[141 * STEP_SIZE] @ 0x56f880
array2[142 * STEP_SIZE] @ 0x570880
array2[143 * STEP_SIZE] @ 0x571880
array2[144 * STEP_SIZE] @ 0x572880
array2[145 * STEP_SIZE] @ 0x573880
array2[146 * STEP_SIZE] @ 0x574880
array2[147 * STEP_SIZE] @ 0x575880
array2[148 * STEP_SIZE] @ 0x576880
array2[149 * STEP_SIZE] @ 0x577880
array2[150 * STEP_SIZE] @ 0x578880
array2[151 * STEP_SIZE] @ 0x579880
array2[152 * STEP_SIZE] @ 0x57a880
array2[153 * STEP_SIZE] @ 0x57b880
array2[154 * STEP_SIZE] @ 0x57c880
array2[155 * STEP_SIZE] @ 0x57d880
array2[156 * STEP_SIZE] @ 0x57e880
array2[157 * STEP_SIZE] @ 0x57f880
array2[158 * STEP_SIZE] @ 0x580880
array2[159 * STEP_SIZE] @ 0x581880
array2[160 * STEP_SIZE] @ 0x582880
array2[161 * STEP_SIZE] @ 0x583880
array2[162 * STEP_SIZE] @ 0x584880
array2[163 * STEP_SIZE] @ 0x585880
array2[164 * STEP_SIZE] @ 0x586880
array2[165 * STEP_SIZE] @ 0x587880
array2[166 * STEP_SIZE] @ 0x588880
array2[167 * STEP_SIZE] @ 0x589880
array2[168 * STEP_SIZE] @ 0x58a880
array2[169 * STEP_SIZE] @ 0x58b880
array2[170 * STEP_SIZE] @ 0x58c880
array2[171 * STEP_SIZE] @ 0x58d880
array2[172 * STEP_SIZE] @ 0x58e880
array2[173 * STEP_SIZE] @ 0x58f880
array2[174 * STEP_SIZE] @ 0x590880
array2[175 * STEP_SIZE] @ 0x591880
array2[176 * STEP_SIZE] @ 0x592880
array2[177 * STEP_SIZE] @ 0x593880
array2[178 * STEP_SIZE] @ 0x594880
array2[179 * STEP_SIZE] @ 0x595880
array2[180 * STEP_SIZE] @ 0x596880
array2[181 * STEP_SIZE] @ 0x597880
array2[182 * STEP_SIZE] @ 0x598880
array2[183 * STEP_SIZE] @ 0x599880
array2[184 * STEP_SIZE] @ 0x59a880
array2[185 * STEP_SIZE] @ 0x59b880
array2[186 * STEP_SIZE] @ 0x59c880
array2[187 * STEP_SIZE] @ 0x59d880
array2[188 * STEP_SIZE] @ 0x59e880
array2[189 * STEP_SIZE] @ 0x59f880
array2[190 * STEP_SIZE] @ 0x5a0880
array2[191 * STEP_SIZE] @ 0x5a1880
array2[192 * STEP_SIZE] @ 0x5a2880
array2[193 * STEP_SIZE] @ 0x5a3880
array2[194 * STEP_SIZE] @ 0x5a4880
array2[195 * STEP_SIZE] @ 0x5a5880
array2[196 * STEP_SIZE] @ 0x5a6880
array2[197 * STEP_SIZE] @ 0x5a7880
array2[198 * STEP_SIZE] @ 0x5a8880
array2[199 * STEP_SIZE] @ 0x5a9880
array2[200 * STEP_SIZE] @ 0x5aa880
array2[201 * STEP_SIZE] @ 0x5ab880
array2[202 * STEP_SIZE] @ 0x5ac880
array2[203 * STEP_SIZE] @ 0x5ad880
array2[204 * STEP_SIZE] @ 0x5ae880
array2[205 * STEP_SIZE] @ 0x5af880
array2[206 * STEP_SIZE] @ 0x5b0880
array2[207 * STEP_SIZE] @ 0x5b1880
array2[208 * STEP_SIZE] @ 0x5b2880
array2[209 * STEP_SIZE] @ 0x5b3880
array2[210 * STEP_SIZE] @ 0x5b4880
array2[211 * STEP_SIZE] @ 0x5b5880
array2[212 * STEP_SIZE] @ 0x5b6880
array2[213 * STEP_SIZE] @ 0x5b7880
array2[214 * STEP_SIZE] @ 0x5b8880
array2[215 * STEP_SIZE] @ 0x5b9880
array2[216 * STEP_SIZE] @ 0x5ba880
array2[217 * STEP_SIZE] @ 0x5bb880
array2[218 * STEP_SIZE] @ 0x5bc880
array2[219 * STEP_SIZE] @ 0x5bd880
array2[220 * STEP_SIZE] @ 0x5be880
array2[221 * STEP_SIZE] @ 0x5bf880
array2[222 * STEP_SIZE] @ 0x5c0880
array2[223 * STEP_SIZE] @ 0x5c1880
array2[224 * STEP_SIZE] @ 0x5c2880
array2[225 * STEP_SIZE] @ 0x5c3880
array2[226 * STEP_SIZE] @ 0x5c4880
array2[227 * STEP_SIZE] @ 0x5c5880
array2[228 * STEP_SIZE] @ 0x5c6880
array2[229 * STEP_SIZE] @ 0x5c7880
array2[230 * STEP_SIZE] @ 0x5c8880
array2[231 * STEP_SIZE] @ 0x5c9880
array2[232 * STEP_SIZE] @ 0x5ca880
array2[233 * STEP_SIZE] @ 0x5cb880
array2[234 * STEP_SIZE] @ 0x5cc880
array2[235 * STEP_SIZE] @ 0x5cd880
array2[236 * STEP_SIZE] @ 0x5ce880
array2[237 * STEP_SIZE] @ 0x5cf880
array2[238 * STEP_SIZE] @ 0x5d0880
array2[239 * STEP_SIZE] @ 0x5d1880
array2[240 * STEP_SIZE] @ 0x5d2880
array2[241 * STEP_SIZE] @ 0x5d3880
array2[242 * STEP_SIZE] @ 0x5d4880
array2[243 * STEP_SIZE] @ 0x5d5880
array2[244 * STEP_SIZE] @ 0x5d6880
array2[245 * STEP_SIZE] @ 0x5d7880
array2[246 * STEP_SIZE] @ 0x5d8880
array2[247 * STEP_SIZE] @ 0x5d9880
array2[248 * STEP_SIZE] @ 0x5da880
array2[249 * STEP_SIZE] @ 0x5db880
array2[250 * STEP_SIZE] @ 0x5dc880
array2[251 * STEP_SIZE] @ 0x5dd880
array2[252 * STEP_SIZE] @ 0x5de880
array2[253 * STEP_SIZE] @ 0x5df880
array2[254 * STEP_SIZE] @ 0x5e0880
array2[255 * STEP_SIZE] @ 0x5e1880
========== Exiting @ tick 12235582000 because exiting with last active thread context
